  Page 1                                    Tue Jun 26 09:03:04 2018

  ******************************************************************
  *                           E P A N E T                          *
  *                   Hydraulic and Water Quality                  *
  *                   Analysis for Pipe Networks                   *
  *                         Version 2.00.12                        *
  ******************************************************************
  
  Analysis begun Tue Jun 26 09:03:04 2018

  WARNING: Pump WellPump#1 closed because cannot deliver head at 0:06:00 hrs.
  WARNING: Pump WellPump#2 closed because cannot deliver head at 0:06:00 hrs.
  WARNING: Pump WellPump#3 closed because cannot deliver head at 0:06:00 hrs.
  WARNING: Pump WellPump#4 closed because cannot deliver head at 0:06:00 hrs.
  
  WARNING: Pump WellPump#1 closed because cannot deliver head at 0:30:00 hrs.
  WARNING: Pump WellPump#2 closed because cannot deliver head at 0:30:00 hrs.
  WARNING: Pump WellPump#3 closed because cannot deliver head at 0:30:00 hrs.
  WARNING: Pump WellPump#4 closed because cannot deliver head at 0:30:00 hrs.
  WARNING: Pump ResvrPump closed because cannot deliver head at 0:30:00 hrs.
  
  WARNING: Pump WellPump#1 closed because cannot deliver head at 0:50:00 hrs.
  WARNING: Pump WellPump#2 closed because cannot deliver head at 0:50:00 hrs.
  WARNING: Pump WellPump#3 closed because cannot deliver head at 0:50:00 hrs.
  WARNING: Pump WellPump#4 closed because cannot deliver head at 0:50:00 hrs.
  
  WARNING: Pump WellPump#1 closed because cannot deliver head at 1:10:00 hrs.
  WARNING: Pump WellPump#2 closed because cannot deliver head at 1:10:00 hrs.
  WARNING: Pump WellPump#3 closed because cannot deliver head at 1:10:00 hrs.
  WARNING: Pump WellPump#4 closed because cannot deliver head at 1:10:00 hrs.
  
  WARNING: Pump WellPump#1 closed because cannot deliver head at 1:20:00 hrs.
  WARNING: Pump WellPump#2 closed because cannot deliver head at 1:20:00 hrs.
  WARNING: Pump WellPump#3 closed because cannot deliver head at 1:20:00 hrs.
  WARNING: Pump WellPump#4 closed because cannot deliver head at 1:20:00 hrs.
  
  WARNING: Pump WellPump#1 closed because cannot deliver head at 1:30:00 hrs.
  WARNING: Pump WellPump#2 closed because cannot deliver head at 1:30:00 hrs.
  WARNING: Pump WellPump#3 closed because cannot deliver head at 1:30:00 hrs.
  WARNING: Pump WellPump#4 closed because cannot deliver head at 1:30:00 hrs.
  
  WARNING: Pump WellPump#1 closed because cannot deliver head at 4:00:00 hrs.
  WARNING: Pump WellPump#2 closed because cannot deliver head at 4:00:00 hrs.
  WARNING: Pump WellPump#3 closed because cannot deliver head at 4:00:00 hrs.
  WARNING: Pump WellPump#4 closed because cannot deliver head at 4:00:00 hrs.
  
  WARNING: Pump WellPump#1 closed because cannot deliver head at 4:10:00 hrs.
  WARNING: Pump WellPump#2 closed because cannot deliver head at 4:10:00 hrs.
  WARNING: Pump WellPump#3 closed because cannot deliver head at 4:10:00 hrs.
  WARNING: Pump WellPump#4 closed because cannot deliver head at 4:10:00 hrs.
  
  WARNING: Pump WellPump#1 closed because cannot deliver head at 4:18:00 hrs.
  WARNING: Pump WellPump#2 closed because cannot deliver head at 4:18:00 hrs.
  WARNING: Pump WellPump#3 closed because cannot deliver head at 4:18:00 hrs.
  WARNING: Pump WellPump#4 closed because cannot deliver head at 4:18:00 hrs.
  
  WARNING: Pump WellPump#1 closed because cannot deliver head at 4:20:00 hrs.
  WARNING: Pump WellPump#2 closed because cannot deliver head at 4:20:00 hrs.
  WARNING: Pump WellPump#3 closed because cannot deliver head at 4:20:00 hrs.
  WARNING: Pump WellPump#4 closed because cannot deliver head at 4:20:00 hrs.
  
  WARNING: Pump WellPump#1 closed because cannot deliver head at 4:36:00 hrs.
  WARNING: Pump WellPump#2 closed because cannot deliver head at 4:36:00 hrs.
  WARNING: Pump WellPump#3 closed because cannot deliver head at 4:36:00 hrs.
  WARNING: Pump WellPump#4 closed because cannot deliver head at 4:36:00 hrs.
  
  WARNING: Pump WellPump#1 closed because cannot deliver head at 4:48:00 hrs.
  WARNING: Pump WellPump#2 closed because cannot deliver head at 4:48:00 hrs.
  WARNING: Pump WellPump#3 closed because cannot deliver head at 4:48:00 hrs.
  WARNING: Pump WellPump#4 closed because cannot deliver head at 4:48:00 hrs.
  WARNING: Pump ResvrPump closed because cannot deliver head at 4:48:00 hrs.
  
  WARNING: Pump WellPump#1 closed because cannot deliver head at 4:54:00 hrs.
  WARNING: Pump WellPump#2 closed because cannot deliver head at 4:54:00 hrs.
  WARNING: Pump WellPump#3 closed because cannot deliver head at 4:54:00 hrs.
  WARNING: Pump WellPump#4 closed because cannot deliver head at 4:54:00 hrs.
  
  WARNING: Pump WellPump#1 closed because cannot deliver head at 8:18:00 hrs.
  WARNING: Pump WellPump#2 closed because cannot deliver head at 8:18:00 hrs.
  WARNING: Pump WellPump#3 closed because cannot deliver head at 8:18:00 hrs.
  WARNING: Pump WellPump#4 closed because cannot deliver head at 8:18:00 hrs.
  WARNING: Pump ResvrPump closed because cannot deliver head at 8:18:00 hrs.
  
  WARNING: Pump WellPump#1 closed because cannot deliver head at 8:20:00 hrs.
  WARNING: Pump WellPump#2 closed because cannot deliver head at 8:20:00 hrs.
  WARNING: Pump WellPump#3 closed because cannot deliver head at 8:20:00 hrs.
  WARNING: Pump WellPump#4 closed because cannot deliver head at 8:20:00 hrs.
  
  WARNING: Pump WellPump#1 closed because cannot deliver head at 8:30:00 hrs.
  WARNING: Pump WellPump#2 closed because cannot deliver head at 8:30:00 hrs.
  WARNING: Pump WellPump#3 closed because cannot deliver head at 8:30:00 hrs.
  WARNING: Pump WellPump#4 closed because cannot deliver head at 8:30:00 hrs.
  
  WARNING: Pump WellPump#1 closed because cannot deliver head at 8:40:00 hrs.
  WARNING: Pump WellPump#2 closed because cannot deliver head at 8:40:00 hrs.
  WARNING: Pump WellPump#3 closed because cannot deliver head at 8:40:00 hrs.
  WARNING: Pump WellPump#4 closed because cannot deliver head at 8:40:00 hrs.
  
  WARNING: Pump WellPump#1 closed because cannot deliver head at 8:48:00 hrs.
  WARNING: Pump WellPump#2 closed because cannot deliver head at 8:48:00 hrs.
  WARNING: Pump WellPump#3 closed because cannot deliver head at 8:48:00 hrs.
  WARNING: Pump WellPump#4 closed because cannot deliver head at 8:48:00 hrs.
  
  WARNING: Pump WellPump#1 closed because cannot deliver head at 9:18:00 hrs.
  WARNING: Pump WellPump#2 closed because cannot deliver head at 9:18:00 hrs.
  WARNING: Pump WellPump#3 closed because cannot deliver head at 9:18:00 hrs.
  WARNING: Pump WellPump#4 closed because cannot deliver head at 9:18:00 hrs.
  WARNING: Pump ResvrPump closed because cannot deliver head at 9:18:00 hrs.
  
  WARNING: Pump WellPump#1 closed because cannot deliver head at 11:54:00 hrs.
  WARNING: Pump WellPump#2 closed because cannot deliver head at 11:54:00 hrs.
  WARNING: Pump WellPump#3 closed because cannot deliver head at 11:54:00 hrs.
  WARNING: Pump WellPump#4 closed because cannot deliver head at 11:54:00 hrs.
  WARNING: Pump ResvrPump closed because cannot deliver head at 11:54:00 hrs.
  
  WARNING: Pump WellPump#1 closed because cannot deliver head at 12:06:00 hrs.
  WARNING: Pump WellPump#2 closed because cannot deliver head at 12:06:00 hrs.
  WARNING: Pump WellPump#3 closed because cannot deliver head at 12:06:00 hrs.
  WARNING: Pump WellPump#4 closed because cannot deliver head at 12:06:00 hrs.
  
  WARNING: Pump WellPump#1 closed because cannot deliver head at 12:12:00 hrs.
  WARNING: Pump WellPump#2 closed because cannot deliver head at 12:12:00 hrs.
  WARNING: Pump WellPump#3 closed because cannot deliver head at 12:12:00 hrs.
  WARNING: Pump WellPump#4 closed because cannot deliver head at 12:12:00 hrs.
  
  WARNING: Pump WellPump#1 closed because cannot deliver head at 12:24:00 hrs.
  WARNING: Pump WellPump#2 closed because cannot deliver head at 12:24:00 hrs.
  WARNING: Pump WellPump#3 closed because cannot deliver head at 12:24:00 hrs.
  WARNING: Pump WellPump#4 closed because cannot deliver head at 12:24:00 hrs.
  WARNING: Pump ResvrPump closed because cannot deliver head at 12:24:00 hrs.
  
  WARNING: Pump WellPump#1 closed because cannot deliver head at 12:36:00 hrs.
  WARNING: Pump WellPump#2 closed because cannot deliver head at 12:36:00 hrs.
  WARNING: Pump WellPump#3 closed because cannot deliver head at 12:36:00 hrs.
  WARNING: Pump WellPump#4 closed because cannot deliver head at 12:36:00 hrs.
  WARNING: Pump ResvrPump closed because cannot deliver head at 12:36:00 hrs.
  
  WARNING: Pump WellPump#1 closed because cannot deliver head at 12:48:00 hrs.
  WARNING: Pump WellPump#2 closed because cannot deliver head at 12:48:00 hrs.
  WARNING: Pump WellPump#3 closed because cannot deliver head at 12:48:00 hrs.
  WARNING: Pump WellPump#4 closed because cannot deliver head at 12:48:00 hrs.
  
  WARNING: Pump WellPump#1 closed because cannot deliver head at 13:18:00 hrs.
  WARNING: Pump WellPump#2 closed because cannot deliver head at 13:18:00 hrs.
  WARNING: Pump WellPump#3 closed because cannot deliver head at 13:18:00 hrs.
  WARNING: Pump WellPump#4 closed because cannot deliver head at 13:18:00 hrs.
  
  WARNING: Pump WellPump#1 closed because cannot deliver head at 15:54:00 hrs.
  WARNING: Pump WellPump#2 closed because cannot deliver head at 15:54:00 hrs.
  WARNING: Pump WellPump#3 closed because cannot deliver head at 15:54:00 hrs.
  WARNING: Pump WellPump#4 closed because cannot deliver head at 15:54:00 hrs.
  
  WARNING: Pump WellPump#1 closed because cannot deliver head at 16:06:00 hrs.
  WARNING: Pump WellPump#2 closed because cannot deliver head at 16:06:00 hrs.
  WARNING: Pump WellPump#3 closed because cannot deliver head at 16:06:00 hrs.
  WARNING: Pump WellPump#4 closed because cannot deliver head at 16:06:00 hrs.
  
  WARNING: Pump WellPump#1 closed because cannot deliver head at 16:12:00 hrs.
  WARNING: Pump WellPump#2 closed because cannot deliver head at 16:12:00 hrs.
  WARNING: Pump WellPump#3 closed because cannot deliver head at 16:12:00 hrs.
  WARNING: Pump WellPump#4 closed because cannot deliver head at 16:12:00 hrs.
  
  WARNING: Pump WellPump#1 closed because cannot deliver head at 16:24:00 hrs.
  WARNING: Pump WellPump#2 closed because cannot deliver head at 16:24:00 hrs.
  WARNING: Pump WellPump#3 closed because cannot deliver head at 16:24:00 hrs.
  WARNING: Pump WellPump#4 closed because cannot deliver head at 16:24:00 hrs.
  WARNING: Pump ResvrPump closed because cannot deliver head at 16:24:00 hrs.
  
  WARNING: Pump WellPump#1 closed because cannot deliver head at 16:36:00 hrs.
  WARNING: Pump WellPump#2 closed because cannot deliver head at 16:36:00 hrs.
  WARNING: Pump WellPump#3 closed because cannot deliver head at 16:36:00 hrs.
  WARNING: Pump WellPump#4 closed because cannot deliver head at 16:36:00 hrs.
  WARNING: Pump ResvrPump closed because cannot deliver head at 16:36:00 hrs.
  
  WARNING: Pump WellPump#1 closed because cannot deliver head at 16:48:00 hrs.
  WARNING: Pump WellPump#2 closed because cannot deliver head at 16:48:00 hrs.
  WARNING: Pump WellPump#3 closed because cannot deliver head at 16:48:00 hrs.
  WARNING: Pump WellPump#4 closed because cannot deliver head at 16:48:00 hrs.
  
  WARNING: Pump WellPump#1 closed because cannot deliver head at 17:20:00 hrs.
  WARNING: Pump WellPump#2 closed because cannot deliver head at 17:20:00 hrs.
  WARNING: Pump WellPump#3 closed because cannot deliver head at 17:20:00 hrs.
  WARNING: Pump WellPump#4 closed because cannot deliver head at 17:20:00 hrs.
  
  WARNING: Pump WellPump#1 closed because cannot deliver head at 20:00:00 hrs.
  WARNING: Pump WellPump#2 closed because cannot deliver head at 20:00:00 hrs.
  WARNING: Pump WellPump#3 closed because cannot deliver head at 20:00:00 hrs.
  WARNING: Pump WellPump#4 closed because cannot deliver head at 20:00:00 hrs.
  WARNING: Pump ResvrPump closed because cannot deliver head at 20:00:00 hrs.
  
  WARNING: Pump WellPump#1 closed because cannot deliver head at 20:36:00 hrs.
  WARNING: Pump WellPump#2 closed because cannot deliver head at 20:36:00 hrs.
  WARNING: Pump WellPump#3 closed because cannot deliver head at 20:36:00 hrs.
  WARNING: Pump WellPump#4 closed because cannot deliver head at 20:36:00 hrs.
  
  WARNING: Pump WellPump#1 closed because cannot deliver head at 20:42:00 hrs.
  WARNING: Pump WellPump#2 closed because cannot deliver head at 20:42:00 hrs.
  WARNING: Pump WellPump#3 closed because cannot deliver head at 20:42:00 hrs.
  WARNING: Pump WellPump#4 closed because cannot deliver head at 20:42:00 hrs.
  WARNING: Pump ResvrPump closed because cannot deliver head at 20:42:00 hrs.
  
  WARNING: Pump WellPump#1 closed because cannot deliver head at 21:06:00 hrs.
  WARNING: Pump WellPump#2 closed because cannot deliver head at 21:06:00 hrs.
  WARNING: Pump WellPump#3 closed because cannot deliver head at 21:06:00 hrs.
  WARNING: Pump WellPump#4 closed because cannot deliver head at 21:06:00 hrs.
  
  WARNING: Pump WellPump#1 closed because cannot deliver head at 24:00:00 hrs.
  WARNING: Pump WellPump#2 closed because cannot deliver head at 24:00:00 hrs.
  WARNING: Pump WellPump#3 closed because cannot deliver head at 24:00:00 hrs.
  WARNING: Pump WellPump#4 closed because cannot deliver head at 24:00:00 hrs.
  
  WARNING: Pump WellPump#1 closed because cannot deliver head at 24:18:00 hrs.
  WARNING: Pump WellPump#2 closed because cannot deliver head at 24:18:00 hrs.
  WARNING: Pump WellPump#3 closed because cannot deliver head at 24:18:00 hrs.
  WARNING: Pump WellPump#4 closed because cannot deliver head at 24:18:00 hrs.
  
  WARNING: Pump WellPump#1 closed because cannot deliver head at 24:20:00 hrs.
  WARNING: Pump WellPump#2 closed because cannot deliver head at 24:20:00 hrs.
  WARNING: Pump WellPump#3 closed because cannot deliver head at 24:20:00 hrs.
  WARNING: Pump WellPump#4 closed because cannot deliver head at 24:20:00 hrs.
  
  WARNING: Pump WellPump#1 closed because cannot deliver head at 24:36:00 hrs.
  WARNING: Pump WellPump#2 closed because cannot deliver head at 24:36:00 hrs.
  WARNING: Pump WellPump#3 closed because cannot deliver head at 24:36:00 hrs.
  WARNING: Pump WellPump#4 closed because cannot deliver head at 24:36:00 hrs.
  
  WARNING: Pump WellPump#1 closed because cannot deliver head at 24:48:00 hrs.
  WARNING: Pump WellPump#2 closed because cannot deliver head at 24:48:00 hrs.
  WARNING: Pump WellPump#3 closed because cannot deliver head at 24:48:00 hrs.
  WARNING: Pump WellPump#4 closed because cannot deliver head at 24:48:00 hrs.
  
  WARNING: Pump WellPump#1 closed because cannot deliver head at 24:54:00 hrs.
  WARNING: Pump WellPump#2 closed because cannot deliver head at 24:54:00 hrs.
  WARNING: Pump WellPump#3 closed because cannot deliver head at 24:54:00 hrs.
  WARNING: Pump WellPump#4 closed because cannot deliver head at 24:54:00 hrs.
  
  WARNING: Pump WellPump#1 closed because cannot deliver head at 27:54:00 hrs.
  WARNING: Pump WellPump#2 closed because cannot deliver head at 27:54:00 hrs.
  WARNING: Pump WellPump#3 closed because cannot deliver head at 27:54:00 hrs.
  WARNING: Pump WellPump#4 closed because cannot deliver head at 27:54:00 hrs.
  
  WARNING: Pump WellPump#1 closed because cannot deliver head at 28:06:00 hrs.
  WARNING: Pump WellPump#2 closed because cannot deliver head at 28:06:00 hrs.
  WARNING: Pump WellPump#3 closed because cannot deliver head at 28:06:00 hrs.
  WARNING: Pump WellPump#4 closed because cannot deliver head at 28:06:00 hrs.
  
  WARNING: Pump WellPump#1 closed because cannot deliver head at 28:18:00 hrs.
  WARNING: Pump WellPump#2 closed because cannot deliver head at 28:18:00 hrs.
  WARNING: Pump WellPump#3 closed because cannot deliver head at 28:18:00 hrs.
  WARNING: Pump WellPump#4 closed because cannot deliver head at 28:18:00 hrs.
  
  WARNING: Pump WellPump#1 closed because cannot deliver head at 28:20:00 hrs.
  WARNING: Pump WellPump#2 closed because cannot deliver head at 28:20:00 hrs.
  WARNING: Pump WellPump#3 closed because cannot deliver head at 28:20:00 hrs.
  WARNING: Pump WellPump#4 closed because cannot deliver head at 28:20:00 hrs.
  WARNING: Pump ResvrPump closed because cannot deliver head at 28:20:00 hrs.
  
  WARNING: Pump WellPump#1 closed because cannot deliver head at 28:36:00 hrs.
  WARNING: Pump WellPump#2 closed because cannot deliver head at 28:36:00 hrs.
  WARNING: Pump WellPump#3 closed because cannot deliver head at 28:36:00 hrs.
  WARNING: Pump WellPump#4 closed because cannot deliver head at 28:36:00 hrs.
  
  WARNING: Pump WellPump#1 closed because cannot deliver head at 28:48:00 hrs.
  WARNING: Pump WellPump#2 closed because cannot deliver head at 28:48:00 hrs.
  WARNING: Pump WellPump#3 closed because cannot deliver head at 28:48:00 hrs.
  WARNING: Pump WellPump#4 closed because cannot deliver head at 28:48:00 hrs.
  WARNING: Pump ResvrPump closed because cannot deliver head at 28:48:00 hrs.
  
  WARNING: Pump WellPump#1 closed because cannot deliver head at 29:18:00 hrs.
  WARNING: Pump WellPump#2 closed because cannot deliver head at 29:18:00 hrs.
  WARNING: Pump WellPump#3 closed because cannot deliver head at 29:18:00 hrs.
  WARNING: Pump WellPump#4 closed because cannot deliver head at 29:18:00 hrs.
  WARNING: Pump ResvrPump closed because cannot deliver head at 29:18:00 hrs.
  
  WARNING: Pump WellPump#1 closed because cannot deliver head at 32:18:00 hrs.
  WARNING: Pump WellPump#2 closed because cannot deliver head at 32:18:00 hrs.
  WARNING: Pump WellPump#3 closed because cannot deliver head at 32:18:00 hrs.
  WARNING: Pump WellPump#4 closed because cannot deliver head at 32:18:00 hrs.
  
  WARNING: Pump WellPump#1 closed because cannot deliver head at 32:20:00 hrs.
  WARNING: Pump WellPump#2 closed because cannot deliver head at 32:20:00 hrs.
  WARNING: Pump WellPump#3 closed because cannot deliver head at 32:20:00 hrs.
  WARNING: Pump WellPump#4 closed because cannot deliver head at 32:20:00 hrs.
  
  WARNING: Pump WellPump#1 closed because cannot deliver head at 32:30:00 hrs.
  WARNING: Pump WellPump#2 closed because cannot deliver head at 32:30:00 hrs.
  WARNING: Pump WellPump#3 closed because cannot deliver head at 32:30:00 hrs.
  WARNING: Pump WellPump#4 closed because cannot deliver head at 32:30:00 hrs.
  
  WARNING: Pump WellPump#1 closed because cannot deliver head at 32:40:00 hrs.
  WARNING: Pump WellPump#2 closed because cannot deliver head at 32:40:00 hrs.
  WARNING: Pump WellPump#3 closed because cannot deliver head at 32:40:00 hrs.
  WARNING: Pump WellPump#4 closed because cannot deliver head at 32:40:00 hrs.
  
  WARNING: Pump WellPump#1 closed because cannot deliver head at 33:10:00 hrs.
  WARNING: Pump WellPump#2 closed because cannot deliver head at 33:10:00 hrs.
  WARNING: Pump WellPump#3 closed because cannot deliver head at 33:10:00 hrs.
  WARNING: Pump WellPump#4 closed because cannot deliver head at 33:10:00 hrs.
  
  WARNING: Pump WellPump#1 closed because cannot deliver head at 35:54:00 hrs.
  WARNING: Pump WellPump#2 closed because cannot deliver head at 35:54:00 hrs.
  WARNING: Pump WellPump#3 closed because cannot deliver head at 35:54:00 hrs.
  WARNING: Pump WellPump#4 closed because cannot deliver head at 35:54:00 hrs.
  
  WARNING: Pump WellPump#1 closed because cannot deliver head at 36:06:00 hrs.
  WARNING: Pump WellPump#2 closed because cannot deliver head at 36:06:00 hrs.
  WARNING: Pump WellPump#3 closed because cannot deliver head at 36:06:00 hrs.
  WARNING: Pump WellPump#4 closed because cannot deliver head at 36:06:00 hrs.
  
  WARNING: Pump WellPump#1 closed because cannot deliver head at 36:12:00 hrs.
  WARNING: Pump WellPump#2 closed because cannot deliver head at 36:12:00 hrs.
  WARNING: Pump WellPump#3 closed because cannot deliver head at 36:12:00 hrs.
  WARNING: Pump WellPump#4 closed because cannot deliver head at 36:12:00 hrs.
  WARNING: Pump ResvrPump closed because cannot deliver head at 36:12:00 hrs.
  
  WARNING: Pump WellPump#1 closed because cannot deliver head at 36:24:00 hrs.
  WARNING: Pump WellPump#2 closed because cannot deliver head at 36:24:00 hrs.
  WARNING: Pump WellPump#3 closed because cannot deliver head at 36:24:00 hrs.
  WARNING: Pump WellPump#4 closed because cannot deliver head at 36:24:00 hrs.
  
  WARNING: Pump WellPump#1 closed because cannot deliver head at 36:36:00 hrs.
  WARNING: Pump WellPump#2 closed because cannot deliver head at 36:36:00 hrs.
  WARNING: Pump WellPump#3 closed because cannot deliver head at 36:36:00 hrs.
  WARNING: Pump WellPump#4 closed because cannot deliver head at 36:36:00 hrs.
  
  WARNING: Pump WellPump#1 closed because cannot deliver head at 36:48:00 hrs.
  WARNING: Pump WellPump#2 closed because cannot deliver head at 36:48:00 hrs.
  WARNING: Pump WellPump#3 closed because cannot deliver head at 36:48:00 hrs.
  WARNING: Pump WellPump#4 closed because cannot deliver head at 36:48:00 hrs.
  
  WARNING: Pump ResvrPump closed because cannot deliver head at 36:50:00 hrs.
  
  WARNING: Pump WellPump#1 closed because cannot deliver head at 37:10:00 hrs.
  WARNING: Pump WellPump#2 closed because cannot deliver head at 37:10:00 hrs.
  WARNING: Pump WellPump#3 closed because cannot deliver head at 37:10:00 hrs.
  WARNING: Pump WellPump#4 closed because cannot deliver head at 37:10:00 hrs.
  
  WARNING: Pump WellPump#1 closed because cannot deliver head at 39:54:00 hrs.
  WARNING: Pump WellPump#2 closed because cannot deliver head at 39:54:00 hrs.
  WARNING: Pump WellPump#3 closed because cannot deliver head at 39:54:00 hrs.
  WARNING: Pump WellPump#4 closed because cannot deliver head at 39:54:00 hrs.
  
  WARNING: Pump WellPump#1 closed because cannot deliver head at 40:06:00 hrs.
  WARNING: Pump WellPump#2 closed because cannot deliver head at 40:06:00 hrs.
  WARNING: Pump WellPump#3 closed because cannot deliver head at 40:06:00 hrs.
  WARNING: Pump WellPump#4 closed because cannot deliver head at 40:06:00 hrs.
  
  WARNING: Pump WellPump#1 closed because cannot deliver head at 40:12:00 hrs.
  WARNING: Pump WellPump#2 closed because cannot deliver head at 40:12:00 hrs.
  WARNING: Pump WellPump#3 closed because cannot deliver head at 40:12:00 hrs.
  WARNING: Pump WellPump#4 closed because cannot deliver head at 40:12:00 hrs.
  
  WARNING: Pump WellPump#1 closed because cannot deliver head at 40:24:00 hrs.
  WARNING: Pump WellPump#2 closed because cannot deliver head at 40:24:00 hrs.
  WARNING: Pump WellPump#3 closed because cannot deliver head at 40:24:00 hrs.
  WARNING: Pump WellPump#4 closed because cannot deliver head at 40:24:00 hrs.
  
  WARNING: Pump WellPump#1 closed because cannot deliver head at 40:36:00 hrs.
  WARNING: Pump WellPump#2 closed because cannot deliver head at 40:36:00 hrs.
  WARNING: Pump WellPump#3 closed because cannot deliver head at 40:36:00 hrs.
  WARNING: Pump WellPump#4 closed because cannot deliver head at 40:36:00 hrs.
  
  WARNING: Pump WellPump#1 closed because cannot deliver head at 40:48:00 hrs.
  WARNING: Pump WellPump#2 closed because cannot deliver head at 40:48:00 hrs.
  WARNING: Pump WellPump#3 closed because cannot deliver head at 40:48:00 hrs.
  WARNING: Pump WellPump#4 closed because cannot deliver head at 40:48:00 hrs.
  
  WARNING: Pump ResvrPump closed because cannot deliver head at 40:50:00 hrs.
  
  WARNING: Pump WellPump#1 closed because cannot deliver head at 41:12:00 hrs.
  WARNING: Pump WellPump#2 closed because cannot deliver head at 41:12:00 hrs.
  WARNING: Pump WellPump#3 closed because cannot deliver head at 41:12:00 hrs.
  WARNING: Pump WellPump#4 closed because cannot deliver head at 41:12:00 hrs.
  WARNING: Pump ResvrPump closed because cannot deliver head at 41:12:00 hrs.
  
  WARNING: Pump WellPump#1 closed because cannot deliver head at 44:00:00 hrs.
  WARNING: Pump WellPump#2 closed because cannot deliver head at 44:00:00 hrs.
  WARNING: Pump WellPump#3 closed because cannot deliver head at 44:00:00 hrs.
  WARNING: Pump WellPump#4 closed because cannot deliver head at 44:00:00 hrs.
  
  WARNING: Pump ResvrPump closed because cannot deliver head at 44:20:00 hrs.
  
  WARNING: Pump WellPump#1 closed because cannot deliver head at 44:36:00 hrs.
  WARNING: Pump WellPump#2 closed because cannot deliver head at 44:36:00 hrs.
  WARNING: Pump WellPump#3 closed because cannot deliver head at 44:36:00 hrs.
  WARNING: Pump WellPump#4 closed because cannot deliver head at 44:36:00 hrs.
  
  WARNING: Pump WellPump#1 closed because cannot deliver head at 44:48:00 hrs.
  WARNING: Pump WellPump#2 closed because cannot deliver head at 44:48:00 hrs.
  WARNING: Pump WellPump#3 closed because cannot deliver head at 44:48:00 hrs.
  WARNING: Pump WellPump#4 closed because cannot deliver head at 44:48:00 hrs.
  
  WARNING: Pump ResvrPump closed because cannot deliver head at 44:50:00 hrs.
  
  WARNING: Pump WellPump#1 closed because cannot deliver head at 45:20:00 hrs.
  WARNING: Pump WellPump#2 closed because cannot deliver head at 45:20:00 hrs.
  WARNING: Pump WellPump#3 closed because cannot deliver head at 45:20:00 hrs.
  WARNING: Pump WellPump#4 closed because cannot deliver head at 45:20:00 hrs.
  
  WARNING: Pump WellPump#1 closed because cannot deliver head at 48:00:00 hrs.
  WARNING: Pump WellPump#2 closed because cannot deliver head at 48:00:00 hrs.
  WARNING: Pump WellPump#3 closed because cannot deliver head at 48:00:00 hrs.
  WARNING: Pump WellPump#4 closed because cannot deliver head at 48:00:00 hrs.
  
  WARNING: Pump WellPump#1 closed because cannot deliver head at 48:10:00 hrs.
  WARNING: Pump WellPump#2 closed because cannot deliver head at 48:10:00 hrs.
  WARNING: Pump WellPump#3 closed because cannot deliver head at 48:10:00 hrs.
  WARNING: Pump WellPump#4 closed because cannot deliver head at 48:10:00 hrs.
  
  WARNING: Pump WellPump#1 closed because cannot deliver head at 48:24:00 hrs.
  WARNING: Pump WellPump#2 closed because cannot deliver head at 48:24:00 hrs.
  WARNING: Pump WellPump#3 closed because cannot deliver head at 48:24:00 hrs.
  WARNING: Pump WellPump#4 closed because cannot deliver head at 48:24:00 hrs.
  
  WARNING: Pump WellPump#1 closed because cannot deliver head at 48:36:00 hrs.
  WARNING: Pump WellPump#2 closed because cannot deliver head at 48:36:00 hrs.
  WARNING: Pump WellPump#3 closed because cannot deliver head at 48:36:00 hrs.
  WARNING: Pump WellPump#4 closed because cannot deliver head at 48:36:00 hrs.
  
  WARNING: Pump WellPump#1 closed because cannot deliver head at 48:48:00 hrs.
  WARNING: Pump WellPump#2 closed because cannot deliver head at 48:48:00 hrs.
  WARNING: Pump WellPump#3 closed because cannot deliver head at 48:48:00 hrs.
  WARNING: Pump WellPump#4 closed because cannot deliver head at 48:48:00 hrs.
  
  WARNING: Pump WellPump#1 closed because cannot deliver head at 49:18:00 hrs.
  WARNING: Pump WellPump#2 closed because cannot deliver head at 49:18:00 hrs.
  WARNING: Pump WellPump#3 closed because cannot deliver head at 49:18:00 hrs.
  WARNING: Pump WellPump#4 closed because cannot deliver head at 49:18:00 hrs.
  
  WARNING: Pump WellPump#1 closed because cannot deliver head at 51:54:00 hrs.
  WARNING: Pump WellPump#2 closed because cannot deliver head at 51:54:00 hrs.
  WARNING: Pump WellPump#3 closed because cannot deliver head at 51:54:00 hrs.
  WARNING: Pump WellPump#4 closed because cannot deliver head at 51:54:00 hrs.
  
  WARNING: Pump WellPump#1 closed because cannot deliver head at 52:06:00 hrs.
  WARNING: Pump WellPump#2 closed because cannot deliver head at 52:06:00 hrs.
  WARNING: Pump WellPump#3 closed because cannot deliver head at 52:06:00 hrs.
  WARNING: Pump WellPump#4 closed because cannot deliver head at 52:06:00 hrs.
  WARNING: Pump ResvrPump closed because cannot deliver head at 52:06:00 hrs.
  
  WARNING: Pump WellPump#1 closed because cannot deliver head at 52:12:00 hrs.
  WARNING: Pump WellPump#2 closed because cannot deliver head at 52:12:00 hrs.
  WARNING: Pump WellPump#3 closed because cannot deliver head at 52:12:00 hrs.
  WARNING: Pump WellPump#4 closed because cannot deliver head at 52:12:00 hrs.
  
  WARNING: Pump WellPump#1 closed because cannot deliver head at 52:24:00 hrs.
  WARNING: Pump WellPump#2 closed because cannot deliver head at 52:24:00 hrs.
  WARNING: Pump WellPump#3 closed because cannot deliver head at 52:24:00 hrs.
  WARNING: Pump WellPump#4 closed because cannot deliver head at 52:24:00 hrs.
  
  WARNING: Pump WellPump#1 closed because cannot deliver head at 52:36:00 hrs.
  WARNING: Pump WellPump#2 closed because cannot deliver head at 52:36:00 hrs.
  WARNING: Pump WellPump#3 closed because cannot deliver head at 52:36:00 hrs.
  WARNING: Pump WellPump#4 closed because cannot deliver head at 52:36:00 hrs.
  
  WARNING: Pump WellPump#1 closed because cannot deliver head at 52:48:00 hrs.
  WARNING: Pump WellPump#2 closed because cannot deliver head at 52:48:00 hrs.
  WARNING: Pump WellPump#3 closed because cannot deliver head at 52:48:00 hrs.
  WARNING: Pump WellPump#4 closed because cannot deliver head at 52:48:00 hrs.
  
  WARNING: Pump WellPump#1 closed because cannot deliver head at 53:12:00 hrs.
  WARNING: Pump WellPump#2 closed because cannot deliver head at 53:12:00 hrs.
  WARNING: Pump WellPump#3 closed because cannot deliver head at 53:12:00 hrs.
  WARNING: Pump WellPump#4 closed because cannot deliver head at 53:12:00 hrs.
  
  WARNING: Pump WellPump#1 closed because cannot deliver head at 56:24:00 hrs.
  WARNING: Pump WellPump#2 closed because cannot deliver head at 56:24:00 hrs.
  WARNING: Pump WellPump#3 closed because cannot deliver head at 56:24:00 hrs.
  WARNING: Pump WellPump#4 closed because cannot deliver head at 56:24:00 hrs.
  
  WARNING: Pump WellPump#1 closed because cannot deliver head at 56:36:00 hrs.
  WARNING: Pump WellPump#2 closed because cannot deliver head at 56:36:00 hrs.
  WARNING: Pump WellPump#3 closed because cannot deliver head at 56:36:00 hrs.
  WARNING: Pump WellPump#4 closed because cannot deliver head at 56:36:00 hrs.
  
  WARNING: Pump ResvrPump closed because cannot deliver head at 56:40:00 hrs.
  
  WARNING: Pump WellPump#1 closed because cannot deliver head at 56:48:00 hrs.
  WARNING: Pump WellPump#2 closed because cannot deliver head at 56:48:00 hrs.
  WARNING: Pump WellPump#3 closed because cannot deliver head at 56:48:00 hrs.
  WARNING: Pump WellPump#4 closed because cannot deliver head at 56:48:00 hrs.
  
  WARNING: Pump WellPump#1 closed because cannot deliver head at 56:54:00 hrs.
  WARNING: Pump WellPump#2 closed because cannot deliver head at 56:54:00 hrs.
  WARNING: Pump WellPump#3 closed because cannot deliver head at 56:54:00 hrs.
  WARNING: Pump WellPump#4 closed because cannot deliver head at 56:54:00 hrs.
  
  WARNING: Pump WellPump#1 closed because cannot deliver head at 60:00:00 hrs.
  WARNING: Pump WellPump#2 closed because cannot deliver head at 60:00:00 hrs.
  WARNING: Pump WellPump#3 closed because cannot deliver head at 60:00:00 hrs.
  WARNING: Pump WellPump#4 closed because cannot deliver head at 60:00:00 hrs.
  
  WARNING: Pump WellPump#1 closed because cannot deliver head at 60:10:00 hrs.
  WARNING: Pump WellPump#2 closed because cannot deliver head at 60:10:00 hrs.
  WARNING: Pump WellPump#3 closed because cannot deliver head at 60:10:00 hrs.
  WARNING: Pump WellPump#4 closed because cannot deliver head at 60:10:00 hrs.
  
  WARNING: Pump WellPump#1 closed because cannot deliver head at 60:24:00 hrs.
  WARNING: Pump WellPump#2 closed because cannot deliver head at 60:24:00 hrs.
  WARNING: Pump WellPump#3 closed because cannot deliver head at 60:24:00 hrs.
  WARNING: Pump WellPump#4 closed because cannot deliver head at 60:24:00 hrs.
  
  WARNING: Pump WellPump#1 closed because cannot deliver head at 60:36:00 hrs.
  WARNING: Pump WellPump#2 closed because cannot deliver head at 60:36:00 hrs.
  WARNING: Pump WellPump#3 closed because cannot deliver head at 60:36:00 hrs.
  WARNING: Pump WellPump#4 closed because cannot deliver head at 60:36:00 hrs.
  
  WARNING: Pump WellPump#1 closed because cannot deliver head at 60:42:00 hrs.
  WARNING: Pump WellPump#2 closed because cannot deliver head at 60:42:00 hrs.
  WARNING: Pump WellPump#3 closed because cannot deliver head at 60:42:00 hrs.
  WARNING: Pump WellPump#4 closed because cannot deliver head at 60:42:00 hrs.
  WARNING: Pump ResvrPump closed because cannot deliver head at 60:42:00 hrs.
  
  WARNING: Pump WellPump#1 closed because cannot deliver head at 61:06:00 hrs.
  WARNING: Pump WellPump#2 closed because cannot deliver head at 61:06:00 hrs.
  WARNING: Pump WellPump#3 closed because cannot deliver head at 61:06:00 hrs.
  WARNING: Pump WellPump#4 closed because cannot deliver head at 61:06:00 hrs.
  
  WARNING: Pump WellPump#1 closed because cannot deliver head at 64:00:00 hrs.
  WARNING: Pump WellPump#2 closed because cannot deliver head at 64:00:00 hrs.
  WARNING: Pump WellPump#3 closed because cannot deliver head at 64:00:00 hrs.
  WARNING: Pump WellPump#4 closed because cannot deliver head at 64:00:00 hrs.
  
  WARNING: Pump WellPump#1 closed because cannot deliver head at 64:10:00 hrs.
  WARNING: Pump WellPump#2 closed because cannot deliver head at 64:10:00 hrs.
  WARNING: Pump WellPump#3 closed because cannot deliver head at 64:10:00 hrs.
  WARNING: Pump WellPump#4 closed because cannot deliver head at 64:10:00 hrs.
  
  WARNING: Pump WellPump#1 closed because cannot deliver head at 64:24:00 hrs.
  WARNING: Pump WellPump#2 closed because cannot deliver head at 64:24:00 hrs.
  WARNING: Pump WellPump#3 closed because cannot deliver head at 64:24:00 hrs.
  WARNING: Pump WellPump#4 closed because cannot deliver head at 64:24:00 hrs.
  WARNING: Pump ResvrPump closed because cannot deliver head at 64:24:00 hrs.
  
  WARNING: Pump WellPump#1 closed because cannot deliver head at 64:36:00 hrs.
  WARNING: Pump WellPump#2 closed because cannot deliver head at 64:36:00 hrs.
  WARNING: Pump WellPump#3 closed because cannot deliver head at 64:36:00 hrs.
  WARNING: Pump WellPump#4 closed because cannot deliver head at 64:36:00 hrs.
  
  WARNING: Pump WellPump#1 closed because cannot deliver head at 64:42:00 hrs.
  WARNING: Pump WellPump#2 closed because cannot deliver head at 64:42:00 hrs.
  WARNING: Pump WellPump#3 closed because cannot deliver head at 64:42:00 hrs.
  WARNING: Pump WellPump#4 closed because cannot deliver head at 64:42:00 hrs.
  
  WARNING: Pump WellPump#1 closed because cannot deliver head at 65:06:00 hrs.
  WARNING: Pump WellPump#2 closed because cannot deliver head at 65:06:00 hrs.
  WARNING: Pump WellPump#3 closed because cannot deliver head at 65:06:00 hrs.
  WARNING: Pump WellPump#4 closed because cannot deliver head at 65:06:00 hrs.
  
  WARNING: Pump WellPump#1 closed because cannot deliver head at 68:00:00 hrs.
  WARNING: Pump WellPump#2 closed because cannot deliver head at 68:00:00 hrs.
  WARNING: Pump WellPump#3 closed because cannot deliver head at 68:00:00 hrs.
  WARNING: Pump WellPump#4 closed because cannot deliver head at 68:00:00 hrs.
  
  WARNING: Pump ResvrPump closed because cannot deliver head at 68:20:00 hrs.
  
  WARNING: Pump WellPump#1 closed because cannot deliver head at 68:30:00 hrs.
  WARNING: Pump WellPump#2 closed because cannot deliver head at 68:30:00 hrs.
  WARNING: Pump WellPump#3 closed because cannot deliver head at 68:30:00 hrs.
  WARNING: Pump WellPump#4 closed because cannot deliver head at 68:30:00 hrs.
  
  WARNING: Pump WellPump#1 closed because cannot deliver head at 68:48:00 hrs.
  WARNING: Pump WellPump#2 closed because cannot deliver head at 68:48:00 hrs.
  WARNING: Pump WellPump#3 closed because cannot deliver head at 68:48:00 hrs.
  WARNING: Pump WellPump#4 closed because cannot deliver head at 68:48:00 hrs.
  
  WARNING: Pump ResvrPump closed because cannot deliver head at 68:50:00 hrs.
  
  WARNING: Pump WellPump#1 closed because cannot deliver head at 69:12:00 hrs.
  WARNING: Pump WellPump#2 closed because cannot deliver head at 69:12:00 hrs.
  WARNING: Pump WellPump#3 closed because cannot deliver head at 69:12:00 hrs.
  WARNING: Pump WellPump#4 closed because cannot deliver head at 69:12:00 hrs.
  
  WARNING: Pump WellPump#1 closed because cannot deliver head at 72:00:00 hrs.
  WARNING: Pump WellPump#2 closed because cannot deliver head at 72:00:00 hrs.
  WARNING: Pump WellPump#3 closed because cannot deliver head at 72:00:00 hrs.
  WARNING: Pump WellPump#4 closed because cannot deliver head at 72:00:00 hrs.
  WARNING: Pump ResvrPump closed because cannot deliver head at 72:00:00 hrs.
  
  WARNING: Pump WellPump#1 closed because cannot deliver head at 72:12:00 hrs.
  WARNING: Pump WellPump#2 closed because cannot deliver head at 72:12:00 hrs.
  WARNING: Pump WellPump#3 closed because cannot deliver head at 72:12:00 hrs.
  WARNING: Pump WellPump#4 closed because cannot deliver head at 72:12:00 hrs.
  
  WARNING: Pump WellPump#1 closed because cannot deliver head at 72:24:00 hrs.
  WARNING: Pump WellPump#2 closed because cannot deliver head at 72:24:00 hrs.
  WARNING: Pump WellPump#3 closed because cannot deliver head at 72:24:00 hrs.
  WARNING: Pump WellPump#4 closed because cannot deliver head at 72:24:00 hrs.
  
  WARNING: Pump WellPump#1 closed because cannot deliver head at 72:36:00 hrs.
  WARNING: Pump WellPump#2 closed because cannot deliver head at 72:36:00 hrs.
  WARNING: Pump WellPump#3 closed because cannot deliver head at 72:36:00 hrs.
  WARNING: Pump WellPump#4 closed because cannot deliver head at 72:36:00 hrs.
  
  WARNING: Pump WellPump#1 closed because cannot deliver head at 72:42:00 hrs.
  WARNING: Pump WellPump#2 closed because cannot deliver head at 72:42:00 hrs.
  WARNING: Pump WellPump#3 closed because cannot deliver head at 72:42:00 hrs.
  WARNING: Pump WellPump#4 closed because cannot deliver head at 72:42:00 hrs.
  
  WARNING: Pump WellPump#1 closed because cannot deliver head at 73:10:00 hrs.
  WARNING: Pump WellPump#2 closed because cannot deliver head at 73:10:00 hrs.
  WARNING: Pump WellPump#3 closed because cannot deliver head at 73:10:00 hrs.
  WARNING: Pump WellPump#4 closed because cannot deliver head at 73:10:00 hrs.
  
  WARNING: Pump WellPump#1 closed because cannot deliver head at 75:54:00 hrs.
  WARNING: Pump WellPump#2 closed because cannot deliver head at 75:54:00 hrs.
  WARNING: Pump WellPump#3 closed because cannot deliver head at 75:54:00 hrs.
  WARNING: Pump WellPump#4 closed because cannot deliver head at 75:54:00 hrs.
  
  WARNING: Pump WellPump#1 closed because cannot deliver head at 76:06:00 hrs.
  WARNING: Pump WellPump#2 closed because cannot deliver head at 76:06:00 hrs.
  WARNING: Pump WellPump#3 closed because cannot deliver head at 76:06:00 hrs.
  WARNING: Pump WellPump#4 closed because cannot deliver head at 76:06:00 hrs.
  
  WARNING: Pump WellPump#1 closed because cannot deliver head at 76:18:00 hrs.
  WARNING: Pump WellPump#2 closed because cannot deliver head at 76:18:00 hrs.
  WARNING: Pump WellPump#3 closed because cannot deliver head at 76:18:00 hrs.
  WARNING: Pump WellPump#4 closed because cannot deliver head at 76:18:00 hrs.
  
  WARNING: Pump WellPump#1 closed because cannot deliver head at 76:20:00 hrs.
  WARNING: Pump WellPump#2 closed because cannot deliver head at 76:20:00 hrs.
  WARNING: Pump WellPump#3 closed because cannot deliver head at 76:20:00 hrs.
  WARNING: Pump WellPump#4 closed because cannot deliver head at 76:20:00 hrs.
  WARNING: Pump ResvrPump closed because cannot deliver head at 76:20:00 hrs.
  
  WARNING: Pump WellPump#1 closed because cannot deliver head at 76:30:00 hrs.
  WARNING: Pump WellPump#2 closed because cannot deliver head at 76:30:00 hrs.
  WARNING: Pump WellPump#3 closed because cannot deliver head at 76:30:00 hrs.
  WARNING: Pump WellPump#4 closed because cannot deliver head at 76:30:00 hrs.
  
  WARNING: Pump WellPump#1 closed because cannot deliver head at 76:40:00 hrs.
  WARNING: Pump WellPump#2 closed because cannot deliver head at 76:40:00 hrs.
  WARNING: Pump WellPump#3 closed because cannot deliver head at 76:40:00 hrs.
  WARNING: Pump WellPump#4 closed because cannot deliver head at 76:40:00 hrs.
  
  WARNING: Pump WellPump#1 closed because cannot deliver head at 77:06:00 hrs.
  WARNING: Pump WellPump#2 closed because cannot deliver head at 77:06:00 hrs.
  WARNING: Pump WellPump#3 closed because cannot deliver head at 77:06:00 hrs.
  WARNING: Pump WellPump#4 closed because cannot deliver head at 77:06:00 hrs.
  
  WARNING: Pump WellPump#1 closed because cannot deliver head at 80:18:00 hrs.
  WARNING: Pump WellPump#2 closed because cannot deliver head at 80:18:00 hrs.
  WARNING: Pump WellPump#3 closed because cannot deliver head at 80:18:00 hrs.
  WARNING: Pump WellPump#4 closed because cannot deliver head at 80:18:00 hrs.
  
  WARNING: Pump WellPump#1 closed because cannot deliver head at 80:20:00 hrs.
  WARNING: Pump WellPump#2 closed because cannot deliver head at 80:20:00 hrs.
  WARNING: Pump WellPump#3 closed because cannot deliver head at 80:20:00 hrs.
  WARNING: Pump WellPump#4 closed because cannot deliver head at 80:20:00 hrs.
  
  WARNING: Pump WellPump#1 closed because cannot deliver head at 80:30:00 hrs.
  WARNING: Pump WellPump#2 closed because cannot deliver head at 80:30:00 hrs.
  WARNING: Pump WellPump#3 closed because cannot deliver head at 80:30:00 hrs.
  WARNING: Pump WellPump#4 closed because cannot deliver head at 80:30:00 hrs.
  
  WARNING: Pump WellPump#1 closed because cannot deliver head at 80:40:00 hrs.
  WARNING: Pump WellPump#2 closed because cannot deliver head at 80:40:00 hrs.
  WARNING: Pump WellPump#3 closed because cannot deliver head at 80:40:00 hrs.
  WARNING: Pump WellPump#4 closed because cannot deliver head at 80:40:00 hrs.
  
  WARNING: Pump WellPump#1 closed because cannot deliver head at 80:48:00 hrs.
  WARNING: Pump WellPump#2 closed because cannot deliver head at 80:48:00 hrs.
  WARNING: Pump WellPump#3 closed because cannot deliver head at 80:48:00 hrs.
  WARNING: Pump WellPump#4 closed because cannot deliver head at 80:48:00 hrs.
  
  WARNING: Pump WellPump#1 closed because cannot deliver head at 81:20:00 hrs.
  WARNING: Pump WellPump#2 closed because cannot deliver head at 81:20:00 hrs.
  WARNING: Pump WellPump#3 closed because cannot deliver head at 81:20:00 hrs.
  WARNING: Pump WellPump#4 closed because cannot deliver head at 81:20:00 hrs.
  
  WARNING: Pump WellPump#1 closed because cannot deliver head at 84:00:00 hrs.
  WARNING: Pump WellPump#2 closed because cannot deliver head at 84:00:00 hrs.
  WARNING: Pump WellPump#3 closed because cannot deliver head at 84:00:00 hrs.
  WARNING: Pump WellPump#4 closed because cannot deliver head at 84:00:00 hrs.
  WARNING: Pump ResvrPump closed because cannot deliver head at 84:00:00 hrs.
  
  WARNING: Pump WellPump#1 closed because cannot deliver head at 84:10:00 hrs.
  WARNING: Pump WellPump#2 closed because cannot deliver head at 84:10:00 hrs.
  WARNING: Pump WellPump#3 closed because cannot deliver head at 84:10:00 hrs.
  WARNING: Pump WellPump#4 closed because cannot deliver head at 84:10:00 hrs.
  
  WARNING: Pump WellPump#1 closed because cannot deliver head at 84:18:00 hrs.
  WARNING: Pump WellPump#2 closed because cannot deliver head at 84:18:00 hrs.
  WARNING: Pump WellPump#3 closed because cannot deliver head at 84:18:00 hrs.
  WARNING: Pump WellPump#4 closed because cannot deliver head at 84:18:00 hrs.
  
  WARNING: Pump WellPump#1 closed because cannot deliver head at 84:20:00 hrs.
  WARNING: Pump WellPump#2 closed because cannot deliver head at 84:20:00 hrs.
  WARNING: Pump WellPump#3 closed because cannot deliver head at 84:20:00 hrs.
  WARNING: Pump WellPump#4 closed because cannot deliver head at 84:20:00 hrs.
  WARNING: Pump ResvrPump closed because cannot deliver head at 84:20:00 hrs.
  
  WARNING: Pump WellPump#1 closed because cannot deliver head at 84:36:00 hrs.
  WARNING: Pump WellPump#2 closed because cannot deliver head at 84:36:00 hrs.
  WARNING: Pump WellPump#3 closed because cannot deliver head at 84:36:00 hrs.
  WARNING: Pump WellPump#4 closed because cannot deliver head at 84:36:00 hrs.
  
  WARNING: Pump WellPump#1 closed because cannot deliver head at 84:48:00 hrs.
  WARNING: Pump WellPump#2 closed because cannot deliver head at 84:48:00 hrs.
  WARNING: Pump WellPump#3 closed because cannot deliver head at 84:48:00 hrs.
  WARNING: Pump WellPump#4 closed because cannot deliver head at 84:48:00 hrs.
  
  WARNING: Pump WellPump#1 closed because cannot deliver head at 87:54:00 hrs.
  WARNING: Pump WellPump#2 closed because cannot deliver head at 87:54:00 hrs.
  WARNING: Pump WellPump#3 closed because cannot deliver head at 87:54:00 hrs.
  WARNING: Pump WellPump#4 closed because cannot deliver head at 87:54:00 hrs.
  
  WARNING: Pump WellPump#1 closed because cannot deliver head at 88:06:00 hrs.
  WARNING: Pump WellPump#2 closed because cannot deliver head at 88:06:00 hrs.
  WARNING: Pump WellPump#3 closed because cannot deliver head at 88:06:00 hrs.
  WARNING: Pump WellPump#4 closed because cannot deliver head at 88:06:00 hrs.
  
  WARNING: Pump ResvrPump closed because cannot deliver head at 88:10:00 hrs.
  
  WARNING: Pump WellPump#1 closed because cannot deliver head at 88:18:00 hrs.
  WARNING: Pump WellPump#2 closed because cannot deliver head at 88:18:00 hrs.
  WARNING: Pump WellPump#3 closed because cannot deliver head at 88:18:00 hrs.
  WARNING: Pump WellPump#4 closed because cannot deliver head at 88:18:00 hrs.
  
  WARNING: Pump WellPump#1 closed because cannot deliver head at 88:20:00 hrs.
  WARNING: Pump WellPump#2 closed because cannot deliver head at 88:20:00 hrs.
  WARNING: Pump WellPump#3 closed because cannot deliver head at 88:20:00 hrs.
  WARNING: Pump WellPump#4 closed because cannot deliver head at 88:20:00 hrs.
  WARNING: Pump ResvrPump closed because cannot deliver head at 88:20:00 hrs.
  
  WARNING: Pump WellPump#1 closed because cannot deliver head at 88:36:00 hrs.
  WARNING: Pump WellPump#2 closed because cannot deliver head at 88:36:00 hrs.
  WARNING: Pump WellPump#3 closed because cannot deliver head at 88:36:00 hrs.
  WARNING: Pump WellPump#4 closed because cannot deliver head at 88:36:00 hrs.
  
  WARNING: Pump WellPump#1 closed because cannot deliver head at 88:48:00 hrs.
  WARNING: Pump WellPump#2 closed because cannot deliver head at 88:48:00 hrs.
  WARNING: Pump WellPump#3 closed because cannot deliver head at 88:48:00 hrs.
  WARNING: Pump WellPump#4 closed because cannot deliver head at 88:48:00 hrs.
  
  WARNING: Pump WellPump#1 closed because cannot deliver head at 88:54:00 hrs.
  WARNING: Pump WellPump#2 closed because cannot deliver head at 88:54:00 hrs.
  WARNING: Pump WellPump#3 closed because cannot deliver head at 88:54:00 hrs.
  WARNING: Pump WellPump#4 closed because cannot deliver head at 88:54:00 hrs.
  
  WARNING: Pump WellPump#1 closed because cannot deliver head at 92:00:00 hrs.
  WARNING: Pump WellPump#2 closed because cannot deliver head at 92:00:00 hrs.
  WARNING: Pump WellPump#3 closed because cannot deliver head at 92:00:00 hrs.
  WARNING: Pump WellPump#4 closed because cannot deliver head at 92:00:00 hrs.
  
  WARNING: Pump WellPump#1 closed because cannot deliver head at 92:30:00 hrs.
  WARNING: Pump WellPump#2 closed because cannot deliver head at 92:30:00 hrs.
  WARNING: Pump WellPump#3 closed because cannot deliver head at 92:30:00 hrs.
  WARNING: Pump WellPump#4 closed because cannot deliver head at 92:30:00 hrs.
  WARNING: Pump ResvrPump closed because cannot deliver head at 92:30:00 hrs.
  
  WARNING: Pump WellPump#1 closed because cannot deliver head at 92:42:00 hrs.
  WARNING: Pump WellPump#2 closed because cannot deliver head at 92:42:00 hrs.
  WARNING: Pump WellPump#3 closed because cannot deliver head at 92:42:00 hrs.
  WARNING: Pump WellPump#4 closed because cannot deliver head at 92:42:00 hrs.
  WARNING: Pump ResvrPump closed because cannot deliver head at 92:42:00 hrs.
  
  WARNING: Pump WellPump#1 closed because cannot deliver head at 93:06:00 hrs.
  WARNING: Pump WellPump#2 closed because cannot deliver head at 93:06:00 hrs.
  WARNING: Pump WellPump#3 closed because cannot deliver head at 93:06:00 hrs.
  WARNING: Pump WellPump#4 closed because cannot deliver head at 93:06:00 hrs.
  
  WARNING: Pump WellPump#1 closed because cannot deliver head at 96:00:00 hrs.
  WARNING: Pump WellPump#2 closed because cannot deliver head at 96:00:00 hrs.
  WARNING: Pump WellPump#3 closed because cannot deliver head at 96:00:00 hrs.
  WARNING: Pump WellPump#4 closed because cannot deliver head at 96:00:00 hrs.
  WARNING: Pump ResvrPump closed because cannot deliver head at 96:00:00 hrs.
  
  WARNING: Pump WellPump#1 closed because cannot deliver head at 96:10:00 hrs.
  WARNING: Pump WellPump#2 closed because cannot deliver head at 96:10:00 hrs.
  WARNING: Pump WellPump#3 closed because cannot deliver head at 96:10:00 hrs.
  WARNING: Pump WellPump#4 closed because cannot deliver head at 96:10:00 hrs.
  
  WARNING: Pump WellPump#1 closed because cannot deliver head at 96:24:00 hrs.
  WARNING: Pump WellPump#2 closed because cannot deliver head at 96:24:00 hrs.
  WARNING: Pump WellPump#3 closed because cannot deliver head at 96:24:00 hrs.
  WARNING: Pump WellPump#4 closed because cannot deliver head at 96:24:00 hrs.
  
  WARNING: Pump WellPump#1 closed because cannot deliver head at 96:36:00 hrs.
  WARNING: Pump WellPump#2 closed because cannot deliver head at 96:36:00 hrs.
  WARNING: Pump WellPump#3 closed because cannot deliver head at 96:36:00 hrs.
  WARNING: Pump WellPump#4 closed because cannot deliver head at 96:36:00 hrs.
  
  WARNING: Pump WellPump#1 closed because cannot deliver head at 96:42:00 hrs.
  WARNING: Pump WellPump#2 closed because cannot deliver head at 96:42:00 hrs.
  WARNING: Pump WellPump#3 closed because cannot deliver head at 96:42:00 hrs.
  WARNING: Pump WellPump#4 closed because cannot deliver head at 96:42:00 hrs.
  
  WARNING: Pump WellPump#1 closed because cannot deliver head at 97:06:00 hrs.
  WARNING: Pump WellPump#2 closed because cannot deliver head at 97:06:00 hrs.
  WARNING: Pump WellPump#3 closed because cannot deliver head at 97:06:00 hrs.
  WARNING: Pump WellPump#4 closed because cannot deliver head at 97:06:00 hrs.
  WARNING: Pump ResvrPump closed because cannot deliver head at 97:06:00 hrs.
  
  WARNING: Pump WellPump#1 closed because cannot deliver head at 100:00:00 hrs.
  WARNING: Pump WellPump#2 closed because cannot deliver head at 100:00:00 hrs.
  WARNING: Pump WellPump#3 closed because cannot deliver head at 100:00:00 hrs.
  WARNING: Pump WellPump#4 closed because cannot deliver head at 100:00:00 hrs.
  
  WARNING: Pump WellPump#1 closed because cannot deliver head at 100:18:00 hrs.
  WARNING: Pump WellPump#2 closed because cannot deliver head at 100:18:00 hrs.
  WARNING: Pump WellPump#3 closed because cannot deliver head at 100:18:00 hrs.
  WARNING: Pump WellPump#4 closed because cannot deliver head at 100:18:00 hrs.
  WARNING: Pump ResvrPump closed because cannot deliver head at 100:18:00 hrs.
  
  WARNING: Pump WellPump#1 closed because cannot deliver head at 100:20:00 hrs.
  WARNING: Pump WellPump#2 closed because cannot deliver head at 100:20:00 hrs.
  WARNING: Pump WellPump#3 closed because cannot deliver head at 100:20:00 hrs.
  WARNING: Pump WellPump#4 closed because cannot deliver head at 100:20:00 hrs.
  
  WARNING: Pump WellPump#1 closed because cannot deliver head at 100:36:00 hrs.
  WARNING: Pump WellPump#2 closed because cannot deliver head at 100:36:00 hrs.
  WARNING: Pump WellPump#3 closed because cannot deliver head at 100:36:00 hrs.
  WARNING: Pump WellPump#4 closed because cannot deliver head at 100:36:00 hrs.
  
  WARNING: Pump WellPump#1 closed because cannot deliver head at 100:48:00 hrs.
  WARNING: Pump WellPump#2 closed because cannot deliver head at 100:48:00 hrs.
  WARNING: Pump WellPump#3 closed because cannot deliver head at 100:48:00 hrs.
  WARNING: Pump WellPump#4 closed because cannot deliver head at 100:48:00 hrs.
  
  WARNING: Pump WellPump#1 closed because cannot deliver head at 100:54:00 hrs.
  WARNING: Pump WellPump#2 closed because cannot deliver head at 100:54:00 hrs.
  WARNING: Pump WellPump#3 closed because cannot deliver head at 100:54:00 hrs.
  WARNING: Pump WellPump#4 closed because cannot deliver head at 100:54:00 hrs.
  
  WARNING: Pump WellPump#1 closed because cannot deliver head at 104:18:00 hrs.
  WARNING: Pump WellPump#2 closed because cannot deliver head at 104:18:00 hrs.
  WARNING: Pump WellPump#3 closed because cannot deliver head at 104:18:00 hrs.
  WARNING: Pump WellPump#4 closed because cannot deliver head at 104:18:00 hrs.
  
  WARNING: Pump WellPump#1 closed because cannot deliver head at 104:20:00 hrs.
  WARNING: Pump WellPump#2 closed because cannot deliver head at 104:20:00 hrs.
  WARNING: Pump WellPump#3 closed because cannot deliver head at 104:20:00 hrs.
  WARNING: Pump WellPump#4 closed because cannot deliver head at 104:20:00 hrs.
  
  WARNING: Pump WellPump#1 closed because cannot deliver head at 104:30:00 hrs.
  WARNING: Pump WellPump#2 closed because cannot deliver head at 104:30:00 hrs.
  WARNING: Pump WellPump#3 closed because cannot deliver head at 104:30:00 hrs.
  WARNING: Pump WellPump#4 closed because cannot deliver head at 104:30:00 hrs.
  
  WARNING: Pump WellPump#1 closed because cannot deliver head at 104:40:00 hrs.
  WARNING: Pump WellPump#2 closed because cannot deliver head at 104:40:00 hrs.
  WARNING: Pump WellPump#3 closed because cannot deliver head at 104:40:00 hrs.
  WARNING: Pump WellPump#4 closed because cannot deliver head at 104:40:00 hrs.
  
  WARNING: Pump WellPump#1 closed because cannot deliver head at 104:48:00 hrs.
  WARNING: Pump WellPump#2 closed because cannot deliver head at 104:48:00 hrs.
  WARNING: Pump WellPump#3 closed because cannot deliver head at 104:48:00 hrs.
  WARNING: Pump WellPump#4 closed because cannot deliver head at 104:48:00 hrs.
  
  WARNING: Pump WellPump#1 closed because cannot deliver head at 105:12:00 hrs.
  WARNING: Pump WellPump#2 closed because cannot deliver head at 105:12:00 hrs.
  WARNING: Pump WellPump#3 closed because cannot deliver head at 105:12:00 hrs.
  WARNING: Pump WellPump#4 closed because cannot deliver head at 105:12:00 hrs.
  WARNING: Pump ResvrPump closed because cannot deliver head at 105:12:00 hrs.
  
  WARNING: Pump WellPump#1 closed because cannot deliver head at 108:06:00 hrs.
  WARNING: Pump WellPump#2 closed because cannot deliver head at 108:06:00 hrs.
  WARNING: Pump WellPump#3 closed because cannot deliver head at 108:06:00 hrs.
  WARNING: Pump WellPump#4 closed because cannot deliver head at 108:06:00 hrs.
  
  WARNING: Pump ResvrPump closed because cannot deliver head at 108:10:00 hrs.
  
  WARNING: Pump WellPump#1 closed because cannot deliver head at 108:24:00 hrs.
  WARNING: Pump WellPump#2 closed because cannot deliver head at 108:24:00 hrs.
  WARNING: Pump WellPump#3 closed because cannot deliver head at 108:24:00 hrs.
  WARNING: Pump WellPump#4 closed because cannot deliver head at 108:24:00 hrs.
  
  WARNING: Pump WellPump#1 closed because cannot deliver head at 108:36:00 hrs.
  WARNING: Pump WellPump#2 closed because cannot deliver head at 108:36:00 hrs.
  WARNING: Pump WellPump#3 closed because cannot deliver head at 108:36:00 hrs.
  WARNING: Pump WellPump#4 closed because cannot deliver head at 108:36:00 hrs.
  
  WARNING: Pump WellPump#1 closed because cannot deliver head at 108:48:00 hrs.
  WARNING: Pump WellPump#2 closed because cannot deliver head at 108:48:00 hrs.
  WARNING: Pump WellPump#3 closed because cannot deliver head at 108:48:00 hrs.
  WARNING: Pump WellPump#4 closed because cannot deliver head at 108:48:00 hrs.
  
  WARNING: Pump WellPump#1 closed because cannot deliver head at 109:18:00 hrs.
  WARNING: Pump WellPump#2 closed because cannot deliver head at 109:18:00 hrs.
  WARNING: Pump WellPump#3 closed because cannot deliver head at 109:18:00 hrs.
  WARNING: Pump WellPump#4 closed because cannot deliver head at 109:18:00 hrs.
  
  WARNING: Pump WellPump#1 closed because cannot deliver head at 111:54:00 hrs.
  WARNING: Pump WellPump#2 closed because cannot deliver head at 111:54:00 hrs.
  WARNING: Pump WellPump#3 closed because cannot deliver head at 111:54:00 hrs.
  WARNING: Pump WellPump#4 closed because cannot deliver head at 111:54:00 hrs.
  WARNING: Pump ResvrPump closed because cannot deliver head at 111:54:00 hrs.
  
  WARNING: Pump WellPump#1 closed because cannot deliver head at 112:06:00 hrs.
  WARNING: Pump WellPump#2 closed because cannot deliver head at 112:06:00 hrs.
  WARNING: Pump WellPump#3 closed because cannot deliver head at 112:06:00 hrs.
  WARNING: Pump WellPump#4 closed because cannot deliver head at 112:06:00 hrs.
  WARNING: Pump ResvrPump closed because cannot deliver head at 112:06:00 hrs.
  
  WARNING: Pump WellPump#1 closed because cannot deliver head at 112:12:00 hrs.
  WARNING: Pump WellPump#2 closed because cannot deliver head at 112:12:00 hrs.
  WARNING: Pump WellPump#3 closed because cannot deliver head at 112:12:00 hrs.
  WARNING: Pump WellPump#4 closed because cannot deliver head at 112:12:00 hrs.
  
  WARNING: Pump WellPump#1 closed because cannot deliver head at 112:24:00 hrs.
  WARNING: Pump WellPump#2 closed because cannot deliver head at 112:24:00 hrs.
  WARNING: Pump WellPump#3 closed because cannot deliver head at 112:24:00 hrs.
  WARNING: Pump WellPump#4 closed because cannot deliver head at 112:24:00 hrs.
  
  WARNING: Pump WellPump#1 closed because cannot deliver head at 112:36:00 hrs.
  WARNING: Pump WellPump#2 closed because cannot deliver head at 112:36:00 hrs.
  WARNING: Pump WellPump#3 closed because cannot deliver head at 112:36:00 hrs.
  WARNING: Pump WellPump#4 closed because cannot deliver head at 112:36:00 hrs.
  
  WARNING: Pump WellPump#1 closed because cannot deliver head at 112:48:00 hrs.
  WARNING: Pump WellPump#2 closed because cannot deliver head at 112:48:00 hrs.
  WARNING: Pump WellPump#3 closed because cannot deliver head at 112:48:00 hrs.
  WARNING: Pump WellPump#4 closed because cannot deliver head at 112:48:00 hrs.
  WARNING: Pump ResvrPump closed because cannot deliver head at 112:48:00 hrs.
  
  WARNING: Pump WellPump#1 closed because cannot deliver head at 113:18:00 hrs.
  WARNING: Pump WellPump#2 closed because cannot deliver head at 113:18:00 hrs.
  WARNING: Pump WellPump#3 closed because cannot deliver head at 113:18:00 hrs.
  WARNING: Pump WellPump#4 closed because cannot deliver head at 113:18:00 hrs.
  
  WARNING: Pump WellPump#1 closed because cannot deliver head at 115:54:00 hrs.
  WARNING: Pump WellPump#2 closed because cannot deliver head at 115:54:00 hrs.
  WARNING: Pump WellPump#3 closed because cannot deliver head at 115:54:00 hrs.
  WARNING: Pump WellPump#4 closed because cannot deliver head at 115:54:00 hrs.
  
  WARNING: Pump WellPump#1 closed because cannot deliver head at 116:00:00 hrs.
  WARNING: Pump WellPump#2 closed because cannot deliver head at 116:00:00 hrs.
  WARNING: Pump WellPump#3 closed because cannot deliver head at 116:00:00 hrs.
  WARNING: Pump WellPump#4 closed because cannot deliver head at 116:00:00 hrs.
  
  WARNING: Pump WellPump#1 closed because cannot deliver head at 116:24:00 hrs.
  WARNING: Pump WellPump#2 closed because cannot deliver head at 116:24:00 hrs.
  WARNING: Pump WellPump#3 closed because cannot deliver head at 116:24:00 hrs.
  WARNING: Pump WellPump#4 closed because cannot deliver head at 116:24:00 hrs.
  WARNING: Pump ResvrPump closed because cannot deliver head at 116:24:00 hrs.
  
  WARNING: Pump WellPump#1 closed because cannot deliver head at 116:36:00 hrs.
  WARNING: Pump WellPump#2 closed because cannot deliver head at 116:36:00 hrs.
  WARNING: Pump WellPump#3 closed because cannot deliver head at 116:36:00 hrs.
  WARNING: Pump WellPump#4 closed because cannot deliver head at 116:36:00 hrs.
  
  WARNING: Pump WellPump#1 closed because cannot deliver head at 116:48:00 hrs.
  WARNING: Pump WellPump#2 closed because cannot deliver head at 116:48:00 hrs.
  WARNING: Pump WellPump#3 closed because cannot deliver head at 116:48:00 hrs.
  WARNING: Pump WellPump#4 closed because cannot deliver head at 116:48:00 hrs.
  
  WARNING: Pump WellPump#1 closed because cannot deliver head at 116:54:00 hrs.
  WARNING: Pump WellPump#2 closed because cannot deliver head at 116:54:00 hrs.
  WARNING: Pump WellPump#3 closed because cannot deliver head at 116:54:00 hrs.
  WARNING: Pump WellPump#4 closed because cannot deliver head at 116:54:00 hrs.
  
  WARNING: Pump WellPump#1 closed because cannot deliver head at 119:54:00 hrs.
  WARNING: Pump WellPump#2 closed because cannot deliver head at 119:54:00 hrs.
  WARNING: Pump WellPump#3 closed because cannot deliver head at 119:54:00 hrs.
  WARNING: Pump WellPump#4 closed because cannot deliver head at 119:54:00 hrs.
  WARNING: Pump ResvrPump closed because cannot deliver head at 119:54:00 hrs.
  
  WARNING: Pump WellPump#1 closed because cannot deliver head at 120:06:00 hrs.
  WARNING: Pump WellPump#2 closed because cannot deliver head at 120:06:00 hrs.
  WARNING: Pump WellPump#3 closed because cannot deliver head at 120:06:00 hrs.
  WARNING: Pump WellPump#4 closed because cannot deliver head at 120:06:00 hrs.
  
  WARNING: Pump WellPump#1 closed because cannot deliver head at 120:18:00 hrs.
  WARNING: Pump WellPump#2 closed because cannot deliver head at 120:18:00 hrs.
  WARNING: Pump WellPump#3 closed because cannot deliver head at 120:18:00 hrs.
  WARNING: Pump WellPump#4 closed because cannot deliver head at 120:18:00 hrs.
  
  WARNING: Pump WellPump#1 closed because cannot deliver head at 120:20:00 hrs.
  WARNING: Pump WellPump#2 closed because cannot deliver head at 120:20:00 hrs.
  WARNING: Pump WellPump#3 closed because cannot deliver head at 120:20:00 hrs.
  WARNING: Pump WellPump#4 closed because cannot deliver head at 120:20:00 hrs.
  
  WARNING: Pump WellPump#1 closed because cannot deliver head at 120:36:00 hrs.
  WARNING: Pump WellPump#2 closed because cannot deliver head at 120:36:00 hrs.
  WARNING: Pump WellPump#3 closed because cannot deliver head at 120:36:00 hrs.
  WARNING: Pump WellPump#4 closed because cannot deliver head at 120:36:00 hrs.
  
  WARNING: Pump WellPump#1 closed because cannot deliver head at 120:48:00 hrs.
  WARNING: Pump WellPump#2 closed because cannot deliver head at 120:48:00 hrs.
  WARNING: Pump WellPump#3 closed because cannot deliver head at 120:48:00 hrs.
  WARNING: Pump WellPump#4 closed because cannot deliver head at 120:48:00 hrs.
  
  WARNING: Pump WellPump#1 closed because cannot deliver head at 121:20:00 hrs.
  WARNING: Pump WellPump#2 closed because cannot deliver head at 121:20:00 hrs.
  WARNING: Pump WellPump#3 closed because cannot deliver head at 121:20:00 hrs.
  WARNING: Pump WellPump#4 closed because cannot deliver head at 121:20:00 hrs.
  
  WARNING: Pump WellPump#1 closed because cannot deliver head at 124:00:00 hrs.
  WARNING: Pump WellPump#2 closed because cannot deliver head at 124:00:00 hrs.
  WARNING: Pump WellPump#3 closed because cannot deliver head at 124:00:00 hrs.
  WARNING: Pump WellPump#4 closed because cannot deliver head at 124:00:00 hrs.
  
  WARNING: Pump WellPump#1 closed because cannot deliver head at 124:10:00 hrs.
  WARNING: Pump WellPump#2 closed because cannot deliver head at 124:10:00 hrs.
  WARNING: Pump WellPump#3 closed because cannot deliver head at 124:10:00 hrs.
  WARNING: Pump WellPump#4 closed because cannot deliver head at 124:10:00 hrs.
  
  WARNING: Pump WellPump#1 closed because cannot deliver head at 124:24:00 hrs.
  WARNING: Pump WellPump#2 closed because cannot deliver head at 124:24:00 hrs.
  WARNING: Pump WellPump#3 closed because cannot deliver head at 124:24:00 hrs.
  WARNING: Pump WellPump#4 closed because cannot deliver head at 124:24:00 hrs.
  
  WARNING: Pump WellPump#1 closed because cannot deliver head at 124:36:00 hrs.
  WARNING: Pump WellPump#2 closed because cannot deliver head at 124:36:00 hrs.
  WARNING: Pump WellPump#3 closed because cannot deliver head at 124:36:00 hrs.
  WARNING: Pump WellPump#4 closed because cannot deliver head at 124:36:00 hrs.
  WARNING: Pump ResvrPump closed because cannot deliver head at 124:36:00 hrs.
  
  WARNING: Pump WellPump#1 closed because cannot deliver head at 124:48:00 hrs.
  WARNING: Pump WellPump#2 closed because cannot deliver head at 124:48:00 hrs.
  WARNING: Pump WellPump#3 closed because cannot deliver head at 124:48:00 hrs.
  WARNING: Pump WellPump#4 closed because cannot deliver head at 124:48:00 hrs.
  WARNING: Pump ResvrPump closed because cannot deliver head at 124:48:00 hrs.
  
  WARNING: Pump WellPump#1 closed because cannot deliver head at 125:18:00 hrs.
  WARNING: Pump WellPump#2 closed because cannot deliver head at 125:18:00 hrs.
  WARNING: Pump WellPump#3 closed because cannot deliver head at 125:18:00 hrs.
  WARNING: Pump WellPump#4 closed because cannot deliver head at 125:18:00 hrs.
  
  WARNING: Pump WellPump#1 closed because cannot deliver head at 128:18:00 hrs.
  WARNING: Pump WellPump#2 closed because cannot deliver head at 128:18:00 hrs.
  WARNING: Pump WellPump#3 closed because cannot deliver head at 128:18:00 hrs.
  WARNING: Pump WellPump#4 closed because cannot deliver head at 128:18:00 hrs.
  
  WARNING: Pump WellPump#1 closed because cannot deliver head at 128:20:00 hrs.
  WARNING: Pump WellPump#2 closed because cannot deliver head at 128:20:00 hrs.
  WARNING: Pump WellPump#3 closed because cannot deliver head at 128:20:00 hrs.
  WARNING: Pump WellPump#4 closed because cannot deliver head at 128:20:00 hrs.
  
  WARNING: Pump WellPump#1 closed because cannot deliver head at 128:30:00 hrs.
  WARNING: Pump WellPump#2 closed because cannot deliver head at 128:30:00 hrs.
  WARNING: Pump WellPump#3 closed because cannot deliver head at 128:30:00 hrs.
  WARNING: Pump WellPump#4 closed because cannot deliver head at 128:30:00 hrs.
  
  WARNING: Pump WellPump#1 closed because cannot deliver head at 128:40:00 hrs.
  WARNING: Pump WellPump#2 closed because cannot deliver head at 128:40:00 hrs.
  WARNING: Pump WellPump#3 closed because cannot deliver head at 128:40:00 hrs.
  WARNING: Pump WellPump#4 closed because cannot deliver head at 128:40:00 hrs.
  
  WARNING: Pump WellPump#1 closed because cannot deliver head at 129:10:00 hrs.
  WARNING: Pump WellPump#2 closed because cannot deliver head at 129:10:00 hrs.
  WARNING: Pump WellPump#3 closed because cannot deliver head at 129:10:00 hrs.
  WARNING: Pump WellPump#4 closed because cannot deliver head at 129:10:00 hrs.
  
  WARNING: Pump WellPump#1 closed because cannot deliver head at 131:54:00 hrs.
  WARNING: Pump WellPump#2 closed because cannot deliver head at 131:54:00 hrs.
  WARNING: Pump WellPump#3 closed because cannot deliver head at 131:54:00 hrs.
  WARNING: Pump WellPump#4 closed because cannot deliver head at 131:54:00 hrs.
  
  WARNING: Pump WellPump#1 closed because cannot deliver head at 132:06:00 hrs.
  WARNING: Pump WellPump#2 closed because cannot deliver head at 132:06:00 hrs.
  WARNING: Pump WellPump#3 closed because cannot deliver head at 132:06:00 hrs.
  WARNING: Pump WellPump#4 closed because cannot deliver head at 132:06:00 hrs.
  WARNING: Pump ResvrPump closed because cannot deliver head at 132:06:00 hrs.
  
  WARNING: Pump WellPump#1 closed because cannot deliver head at 132:12:00 hrs.
  WARNING: Pump WellPump#2 closed because cannot deliver head at 132:12:00 hrs.
  WARNING: Pump WellPump#3 closed because cannot deliver head at 132:12:00 hrs.
  WARNING: Pump WellPump#4 closed because cannot deliver head at 132:12:00 hrs.
  
  WARNING: Pump WellPump#1 closed because cannot deliver head at 132:24:00 hrs.
  WARNING: Pump WellPump#2 closed because cannot deliver head at 132:24:00 hrs.
  WARNING: Pump WellPump#3 closed because cannot deliver head at 132:24:00 hrs.
  WARNING: Pump WellPump#4 closed because cannot deliver head at 132:24:00 hrs.
  WARNING: Pump ResvrPump closed because cannot deliver head at 132:24:00 hrs.
  
  WARNING: Pump WellPump#1 closed because cannot deliver head at 132:36:00 hrs.
  WARNING: Pump WellPump#2 closed because cannot deliver head at 132:36:00 hrs.
  WARNING: Pump WellPump#3 closed because cannot deliver head at 132:36:00 hrs.
  WARNING: Pump WellPump#4 closed because cannot deliver head at 132:36:00 hrs.
  
  WARNING: Pump WellPump#1 closed because cannot deliver head at 132:42:00 hrs.
  WARNING: Pump WellPump#2 closed because cannot deliver head at 132:42:00 hrs.
  WARNING: Pump WellPump#3 closed because cannot deliver head at 132:42:00 hrs.
  WARNING: Pump WellPump#4 closed because cannot deliver head at 132:42:00 hrs.
  
  WARNING: Pump WellPump#1 closed because cannot deliver head at 133:10:00 hrs.
  WARNING: Pump WellPump#2 closed because cannot deliver head at 133:10:00 hrs.
  WARNING: Pump WellPump#3 closed because cannot deliver head at 133:10:00 hrs.
  WARNING: Pump WellPump#4 closed because cannot deliver head at 133:10:00 hrs.
  
  WARNING: Pump WellPump#1 closed because cannot deliver head at 135:54:00 hrs.
  WARNING: Pump WellPump#2 closed because cannot deliver head at 135:54:00 hrs.
  WARNING: Pump WellPump#3 closed because cannot deliver head at 135:54:00 hrs.
  WARNING: Pump WellPump#4 closed because cannot deliver head at 135:54:00 hrs.
  
  WARNING: Pump WellPump#1 closed because cannot deliver head at 136:06:00 hrs.
  WARNING: Pump WellPump#2 closed because cannot deliver head at 136:06:00 hrs.
  WARNING: Pump WellPump#3 closed because cannot deliver head at 136:06:00 hrs.
  WARNING: Pump WellPump#4 closed because cannot deliver head at 136:06:00 hrs.
  
  WARNING: Pump WellPump#1 closed because cannot deliver head at 136:12:00 hrs.
  WARNING: Pump WellPump#2 closed because cannot deliver head at 136:12:00 hrs.
  WARNING: Pump WellPump#3 closed because cannot deliver head at 136:12:00 hrs.
  WARNING: Pump WellPump#4 closed because cannot deliver head at 136:12:00 hrs.
  
  WARNING: Pump WellPump#1 closed because cannot deliver head at 136:24:00 hrs.
  WARNING: Pump WellPump#2 closed because cannot deliver head at 136:24:00 hrs.
  WARNING: Pump WellPump#3 closed because cannot deliver head at 136:24:00 hrs.
  WARNING: Pump WellPump#4 closed because cannot deliver head at 136:24:00 hrs.
  
  WARNING: Pump WellPump#1 closed because cannot deliver head at 136:36:00 hrs.
  WARNING: Pump WellPump#2 closed because cannot deliver head at 136:36:00 hrs.
  WARNING: Pump WellPump#3 closed because cannot deliver head at 136:36:00 hrs.
  WARNING: Pump WellPump#4 closed because cannot deliver head at 136:36:00 hrs.
  
  WARNING: Pump WellPump#1 closed because cannot deliver head at 136:48:00 hrs.
  WARNING: Pump WellPump#2 closed because cannot deliver head at 136:48:00 hrs.
  WARNING: Pump WellPump#3 closed because cannot deliver head at 136:48:00 hrs.
  WARNING: Pump WellPump#4 closed because cannot deliver head at 136:48:00 hrs.
  
  WARNING: Pump WellPump#1 closed because cannot deliver head at 137:10:00 hrs.
  WARNING: Pump WellPump#2 closed because cannot deliver head at 137:10:00 hrs.
  WARNING: Pump WellPump#3 closed because cannot deliver head at 137:10:00 hrs.
  WARNING: Pump WellPump#4 closed because cannot deliver head at 137:10:00 hrs.
  
  WARNING: Pump WellPump#1 closed because cannot deliver head at 139:54:00 hrs.
  WARNING: Pump WellPump#2 closed because cannot deliver head at 139:54:00 hrs.
  WARNING: Pump WellPump#3 closed because cannot deliver head at 139:54:00 hrs.
  WARNING: Pump WellPump#4 closed because cannot deliver head at 139:54:00 hrs.
  WARNING: Pump ResvrPump closed because cannot deliver head at 139:54:00 hrs.
  
  WARNING: Pump WellPump#1 closed because cannot deliver head at 140:00:00 hrs.
  WARNING: Pump WellPump#2 closed because cannot deliver head at 140:00:00 hrs.
  WARNING: Pump WellPump#3 closed because cannot deliver head at 140:00:00 hrs.
  WARNING: Pump WellPump#4 closed because cannot deliver head at 140:00:00 hrs.
  WARNING: Pump ResvrPump closed because cannot deliver head at 140:00:00 hrs.
  
  WARNING: Pump WellPump#1 closed because cannot deliver head at 140:30:00 hrs.
  WARNING: Pump WellPump#2 closed because cannot deliver head at 140:30:00 hrs.
  WARNING: Pump WellPump#3 closed because cannot deliver head at 140:30:00 hrs.
  WARNING: Pump WellPump#4 closed because cannot deliver head at 140:30:00 hrs.
  
  WARNING: Pump WellPump#1 closed because cannot deliver head at 140:40:00 hrs.
  WARNING: Pump WellPump#2 closed because cannot deliver head at 140:40:00 hrs.
  WARNING: Pump WellPump#3 closed because cannot deliver head at 140:40:00 hrs.
  WARNING: Pump WellPump#4 closed because cannot deliver head at 140:40:00 hrs.
  
  WARNING: Pump WellPump#1 closed because cannot deliver head at 140:48:00 hrs.
  WARNING: Pump WellPump#2 closed because cannot deliver head at 140:48:00 hrs.
  WARNING: Pump WellPump#3 closed because cannot deliver head at 140:48:00 hrs.
  WARNING: Pump WellPump#4 closed because cannot deliver head at 140:48:00 hrs.
  WARNING: Pump ResvrPump closed because cannot deliver head at 140:48:00 hrs.
  
  WARNING: Pump WellPump#1 closed because cannot deliver head at 141:20:00 hrs.
  WARNING: Pump WellPump#2 closed because cannot deliver head at 141:20:00 hrs.
  WARNING: Pump WellPump#3 closed because cannot deliver head at 141:20:00 hrs.
  WARNING: Pump WellPump#4 closed because cannot deliver head at 141:20:00 hrs.
  
  WARNING: Pump WellPump#1 closed because cannot deliver head at 144:00:00 hrs.
  WARNING: Pump WellPump#2 closed because cannot deliver head at 144:00:00 hrs.
  WARNING: Pump WellPump#3 closed because cannot deliver head at 144:00:00 hrs.
  WARNING: Pump WellPump#4 closed because cannot deliver head at 144:00:00 hrs.
  WARNING: Pump ResvrPump closed because cannot deliver head at 144:00:00 hrs.
  
  WARNING: Pump WellPump#1 closed because cannot deliver head at 144:10:00 hrs.
  WARNING: Pump WellPump#2 closed because cannot deliver head at 144:10:00 hrs.
  WARNING: Pump WellPump#3 closed because cannot deliver head at 144:10:00 hrs.
  WARNING: Pump WellPump#4 closed because cannot deliver head at 144:10:00 hrs.
  
  WARNING: Pump WellPump#1 closed because cannot deliver head at 144:24:00 hrs.
  WARNING: Pump WellPump#2 closed because cannot deliver head at 144:24:00 hrs.
  WARNING: Pump WellPump#3 closed because cannot deliver head at 144:24:00 hrs.
  WARNING: Pump WellPump#4 closed because cannot deliver head at 144:24:00 hrs.
  
  WARNING: Pump WellPump#1 closed because cannot deliver head at 144:36:00 hrs.
  WARNING: Pump WellPump#2 closed because cannot deliver head at 144:36:00 hrs.
  WARNING: Pump WellPump#3 closed because cannot deliver head at 144:36:00 hrs.
  WARNING: Pump WellPump#4 closed because cannot deliver head at 144:36:00 hrs.
  
  WARNING: Pump WellPump#1 closed because cannot deliver head at 144:48:00 hrs.
  WARNING: Pump WellPump#2 closed because cannot deliver head at 144:48:00 hrs.
  WARNING: Pump WellPump#3 closed because cannot deliver head at 144:48:00 hrs.
  WARNING: Pump WellPump#4 closed because cannot deliver head at 144:48:00 hrs.
  
  WARNING: Pump ResvrPump closed because cannot deliver head at 144:50:00 hrs.
  
  WARNING: Pump WellPump#1 closed because cannot deliver head at 145:18:00 hrs.
  WARNING: Pump WellPump#2 closed because cannot deliver head at 145:18:00 hrs.
  WARNING: Pump WellPump#3 closed because cannot deliver head at 145:18:00 hrs.
  WARNING: Pump WellPump#4 closed because cannot deliver head at 145:18:00 hrs.
  
  WARNING: Pump WellPump#1 closed because cannot deliver head at 147:54:00 hrs.
  WARNING: Pump WellPump#2 closed because cannot deliver head at 147:54:00 hrs.
  WARNING: Pump WellPump#3 closed because cannot deliver head at 147:54:00 hrs.
  WARNING: Pump WellPump#4 closed because cannot deliver head at 147:54:00 hrs.
  
  WARNING: Pump WellPump#1 closed because cannot deliver head at 148:06:00 hrs.
  WARNING: Pump WellPump#2 closed because cannot deliver head at 148:06:00 hrs.
  WARNING: Pump WellPump#3 closed because cannot deliver head at 148:06:00 hrs.
  WARNING: Pump WellPump#4 closed because cannot deliver head at 148:06:00 hrs.
  
  WARNING: Pump WellPump#1 closed because cannot deliver head at 148:12:00 hrs.
  WARNING: Pump WellPump#2 closed because cannot deliver head at 148:12:00 hrs.
  WARNING: Pump WellPump#3 closed because cannot deliver head at 148:12:00 hrs.
  WARNING: Pump WellPump#4 closed because cannot deliver head at 148:12:00 hrs.
  WARNING: Pump ResvrPump closed because cannot deliver head at 148:12:00 hrs.
  
  WARNING: Pump WellPump#1 closed because cannot deliver head at 148:24:00 hrs.
  WARNING: Pump WellPump#2 closed because cannot deliver head at 148:24:00 hrs.
  WARNING: Pump WellPump#3 closed because cannot deliver head at 148:24:00 hrs.
  WARNING: Pump WellPump#4 closed because cannot deliver head at 148:24:00 hrs.
  WARNING: Pump ResvrPump closed because cannot deliver head at 148:24:00 hrs.
  
  WARNING: Pump WellPump#1 closed because cannot deliver head at 148:36:00 hrs.
  WARNING: Pump WellPump#2 closed because cannot deliver head at 148:36:00 hrs.
  WARNING: Pump WellPump#3 closed because cannot deliver head at 148:36:00 hrs.
  WARNING: Pump WellPump#4 closed because cannot deliver head at 148:36:00 hrs.
  
  WARNING: Pump WellPump#1 closed because cannot deliver head at 148:48:00 hrs.
  WARNING: Pump WellPump#2 closed because cannot deliver head at 148:48:00 hrs.
  WARNING: Pump WellPump#3 closed because cannot deliver head at 148:48:00 hrs.
  WARNING: Pump WellPump#4 closed because cannot deliver head at 148:48:00 hrs.
  WARNING: Pump ResvrPump closed because cannot deliver head at 148:48:00 hrs.
  
  WARNING: Pump WellPump#1 closed because cannot deliver head at 149:10:00 hrs.
  WARNING: Pump WellPump#2 closed because cannot deliver head at 149:10:00 hrs.
  WARNING: Pump WellPump#3 closed because cannot deliver head at 149:10:00 hrs.
  WARNING: Pump WellPump#4 closed because cannot deliver head at 149:10:00 hrs.
  
  WARNING: Pump WellPump#1 closed because cannot deliver head at 152:18:00 hrs.
  WARNING: Pump WellPump#2 closed because cannot deliver head at 152:18:00 hrs.
  WARNING: Pump WellPump#3 closed because cannot deliver head at 152:18:00 hrs.
  WARNING: Pump WellPump#4 closed because cannot deliver head at 152:18:00 hrs.
  WARNING: Pump ResvrPump closed because cannot deliver head at 152:18:00 hrs.
  
  WARNING: Pump WellPump#1 closed because cannot deliver head at 152:20:00 hrs.
  WARNING: Pump WellPump#2 closed because cannot deliver head at 152:20:00 hrs.
  WARNING: Pump WellPump#3 closed because cannot deliver head at 152:20:00 hrs.
  WARNING: Pump WellPump#4 closed because cannot deliver head at 152:20:00 hrs.
  
  WARNING: Pump WellPump#1 closed because cannot deliver head at 152:30:00 hrs.
  WARNING: Pump WellPump#2 closed because cannot deliver head at 152:30:00 hrs.
  WARNING: Pump WellPump#3 closed because cannot deliver head at 152:30:00 hrs.
  WARNING: Pump WellPump#4 closed because cannot deliver head at 152:30:00 hrs.
  
  WARNING: Pump WellPump#1 closed because cannot deliver head at 152:48:00 hrs.
  WARNING: Pump WellPump#2 closed because cannot deliver head at 152:48:00 hrs.
  WARNING: Pump WellPump#3 closed because cannot deliver head at 152:48:00 hrs.
  WARNING: Pump WellPump#4 closed because cannot deliver head at 152:48:00 hrs.
  
  WARNING: Pump WellPump#1 closed because cannot deliver head at 152:54:00 hrs.
  WARNING: Pump WellPump#2 closed because cannot deliver head at 152:54:00 hrs.
  WARNING: Pump WellPump#3 closed because cannot deliver head at 152:54:00 hrs.
  WARNING: Pump WellPump#4 closed because cannot deliver head at 152:54:00 hrs.
  
[...]
  WARNING: Pump ResvrPump closed because cannot deliver head at 656:30:00 hrs.
  
  WARNING: Pump WellPump#1 closed because cannot deliver head at 656:40:00 hrs.
  WARNING: Pump WellPump#2 closed because cannot deliver head at 656:40:00 hrs.
  WARNING: Pump WellPump#3 closed because cannot deliver head at 656:40:00 hrs.
  WARNING: Pump WellPump#4 closed because cannot deliver head at 656:40:00 hrs.
  WARNING: Pump ResvrPump closed because cannot deliver head at 656:40:00 hrs.
  
  WARNING: Pump WellPump#1 closed because cannot deliver head at 656:48:00 hrs.
  WARNING: Pump WellPump#2 closed because cannot deliver head at 656:48:00 hrs.
  WARNING: Pump WellPump#3 closed because cannot deliver head at 656:48:00 hrs.
  WARNING: Pump WellPump#4 closed because cannot deliver head at 656:48:00 hrs.
  WARNING: Pump ResvrPump closed because cannot deliver head at 656:48:00 hrs.
  
  WARNING: Pump ResvrPump closed because cannot deliver head at 656:50:00 hrs.
  
  WARNING: Pump WellPump#1 closed because cannot deliver head at 657:20:00 hrs.
  WARNING: Pump WellPump#2 closed because cannot deliver head at 657:20:00 hrs.
  WARNING: Pump WellPump#3 closed because cannot deliver head at 657:20:00 hrs.
  WARNING: Pump WellPump#4 closed because cannot deliver head at 657:20:00 hrs.
  
  WARNING: Pump WellPump#1 closed because cannot deliver head at 660:00:00 hrs.
  WARNING: Pump WellPump#2 closed because cannot deliver head at 660:00:00 hrs.
  WARNING: Pump WellPump#3 closed because cannot deliver head at 660:00:00 hrs.
  WARNING: Pump WellPump#4 closed because cannot deliver head at 660:00:00 hrs.
  
  WARNING: Pump WellPump#1 closed because cannot deliver head at 660:10:00 hrs.
  WARNING: Pump WellPump#2 closed because cannot deliver head at 660:10:00 hrs.
  WARNING: Pump WellPump#3 closed because cannot deliver head at 660:10:00 hrs.
  WARNING: Pump WellPump#4 closed because cannot deliver head at 660:10:00 hrs.
  
  WARNING: Pump WellPump#1 closed because cannot deliver head at 660:18:00 hrs.
  WARNING: Pump WellPump#2 closed because cannot deliver head at 660:18:00 hrs.
  WARNING: Pump WellPump#3 closed because cannot deliver head at 660:18:00 hrs.
  WARNING: Pump WellPump#4 closed because cannot deliver head at 660:18:00 hrs.
  
  WARNING: Pump WellPump#1 closed because cannot deliver head at 660:20:00 hrs.
  WARNING: Pump WellPump#2 closed because cannot deliver head at 660:20:00 hrs.
  WARNING: Pump WellPump#3 closed because cannot deliver head at 660:20:00 hrs.
  WARNING: Pump WellPump#4 closed because cannot deliver head at 660:20:00 hrs.
  
  WARNING: Pump WellPump#1 closed because cannot deliver head at 660:36:00 hrs.
  WARNING: Pump WellPump#2 closed because cannot deliver head at 660:36:00 hrs.
  WARNING: Pump WellPump#3 closed because cannot deliver head at 660:36:00 hrs.
  WARNING: Pump WellPump#4 closed because cannot deliver head at 660:36:00 hrs.
  
  WARNING: Pump WellPump#1 closed because cannot deliver head at 660:48:00 hrs.
  WARNING: Pump WellPump#2 closed because cannot deliver head at 660:48:00 hrs.
  WARNING: Pump WellPump#3 closed because cannot deliver head at 660:48:00 hrs.
  WARNING: Pump WellPump#4 closed because cannot deliver head at 660:48:00 hrs.
  
  WARNING: Pump WellPump#1 closed because cannot deliver head at 663:54:00 hrs.
  WARNING: Pump WellPump#2 closed because cannot deliver head at 663:54:00 hrs.
  WARNING: Pump WellPump#3 closed because cannot deliver head at 663:54:00 hrs.
  WARNING: Pump WellPump#4 closed because cannot deliver head at 663:54:00 hrs.
  WARNING: Pump ResvrPump closed because cannot deliver head at 663:54:00 hrs.
  
  WARNING: Pump WellPump#1 closed because cannot deliver head at 664:06:00 hrs.
  WARNING: Pump WellPump#2 closed because cannot deliver head at 664:06:00 hrs.
  WARNING: Pump WellPump#3 closed because cannot deliver head at 664:06:00 hrs.
  WARNING: Pump WellPump#4 closed because cannot deliver head at 664:06:00 hrs.
  
  WARNING: Pump WellPump#1 closed because cannot deliver head at 664:18:00 hrs.
  WARNING: Pump WellPump#2 closed because cannot deliver head at 664:18:00 hrs.
  WARNING: Pump WellPump#3 closed because cannot deliver head at 664:18:00 hrs.
  WARNING: Pump WellPump#4 closed because cannot deliver head at 664:18:00 hrs.
  WARNING: Pump ResvrPump closed because cannot deliver head at 664:18:00 hrs.
  
  WARNING: Pump WellPump#1 closed because cannot deliver head at 664:20:00 hrs.
  WARNING: Pump WellPump#2 closed because cannot deliver head at 664:20:00 hrs.
  WARNING: Pump WellPump#3 closed because cannot deliver head at 664:20:00 hrs.
  WARNING: Pump WellPump#4 closed because cannot deliver head at 664:20:00 hrs.
  WARNING: Pump ResvrPump closed because cannot deliver head at 664:20:00 hrs.
  
  WARNING: Pump WellPump#1 closed because cannot deliver head at 664:36:00 hrs.
  WARNING: Pump WellPump#2 closed because cannot deliver head at 664:36:00 hrs.
  WARNING: Pump WellPump#3 closed because cannot deliver head at 664:36:00 hrs.
  WARNING: Pump WellPump#4 closed because cannot deliver head at 664:36:00 hrs.
  
  WARNING: Pump WellPump#1 closed because cannot deliver head at 664:48:00 hrs.
  WARNING: Pump WellPump#2 closed because cannot deliver head at 664:48:00 hrs.
  WARNING: Pump WellPump#3 closed because cannot deliver head at 664:48:00 hrs.
  WARNING: Pump WellPump#4 closed because cannot deliver head at 664:48:00 hrs.
  WARNING: Pump ResvrPump closed because cannot deliver head at 664:48:00 hrs.
  
  WARNING: Pump WellPump#1 closed because cannot deliver head at 664:54:00 hrs.
  WARNING: Pump WellPump#2 closed because cannot deliver head at 664:54:00 hrs.
  WARNING: Pump WellPump#3 closed because cannot deliver head at 664:54:00 hrs.
  WARNING: Pump WellPump#4 closed because cannot deliver head at 664:54:00 hrs.
  
  WARNING: Pump WellPump#1 closed because cannot deliver head at 668:00:00 hrs.
  WARNING: Pump WellPump#2 closed because cannot deliver head at 668:00:00 hrs.
  WARNING: Pump WellPump#3 closed because cannot deliver head at 668:00:00 hrs.
  WARNING: Pump WellPump#4 closed because cannot deliver head at 668:00:00 hrs.
  
  WARNING: Pump ResvrPump closed because cannot deliver head at 668:10:00 hrs.
  
  WARNING: Pump WellPump#1 closed because cannot deliver head at 668:30:00 hrs.
  WARNING: Pump WellPump#2 closed because cannot deliver head at 668:30:00 hrs.
  WARNING: Pump WellPump#3 closed because cannot deliver head at 668:30:00 hrs.
  WARNING: Pump WellPump#4 closed because cannot deliver head at 668:30:00 hrs.
  
  WARNING: Pump WellPump#1 closed because cannot deliver head at 668:42:00 hrs.
  WARNING: Pump WellPump#2 closed because cannot deliver head at 668:42:00 hrs.
  WARNING: Pump WellPump#3 closed because cannot deliver head at 668:42:00 hrs.
  WARNING: Pump WellPump#4 closed because cannot deliver head at 668:42:00 hrs.
  
  WARNING: Pump WellPump#1 closed because cannot deliver head at 669:06:00 hrs.
  WARNING: Pump WellPump#2 closed because cannot deliver head at 669:06:00 hrs.
  WARNING: Pump WellPump#3 closed because cannot deliver head at 669:06:00 hrs.
  WARNING: Pump WellPump#4 closed because cannot deliver head at 669:06:00 hrs.
  WARNING: Pump ResvrPump closed because cannot deliver head at 669:06:00 hrs.
  
  WARNING: Pump WellPump#1 closed because cannot deliver head at 672:00:00 hrs.
  WARNING: Pump WellPump#2 closed because cannot deliver head at 672:00:00 hrs.
  WARNING: Pump WellPump#3 closed because cannot deliver head at 672:00:00 hrs.
  WARNING: Pump WellPump#4 closed because cannot deliver head at 672:00:00 hrs.
  
  WARNING: Pump WellPump#1 closed because cannot deliver head at 672:10:00 hrs.
  WARNING: Pump WellPump#2 closed because cannot deliver head at 672:10:00 hrs.
  WARNING: Pump WellPump#3 closed because cannot deliver head at 672:10:00 hrs.
  WARNING: Pump WellPump#4 closed because cannot deliver head at 672:10:00 hrs.
  
  WARNING: Pump WellPump#1 closed because cannot deliver head at 672:24:00 hrs.
  WARNING: Pump WellPump#2 closed because cannot deliver head at 672:24:00 hrs.
  WARNING: Pump WellPump#3 closed because cannot deliver head at 672:24:00 hrs.
  WARNING: Pump WellPump#4 closed because cannot deliver head at 672:24:00 hrs.
  WARNING: Pump ResvrPump closed because cannot deliver head at 672:24:00 hrs.
  
  WARNING: Pump WellPump#1 closed because cannot deliver head at 672:36:00 hrs.
  WARNING: Pump WellPump#2 closed because cannot deliver head at 672:36:00 hrs.
  WARNING: Pump WellPump#3 closed because cannot deliver head at 672:36:00 hrs.
  WARNING: Pump WellPump#4 closed because cannot deliver head at 672:36:00 hrs.
  WARNING: Pump ResvrPump closed because cannot deliver head at 672:36:00 hrs.
  
  WARNING: Pump WellPump#1 closed because cannot deliver head at 672:42:00 hrs.
  WARNING: Pump WellPump#2 closed because cannot deliver head at 672:42:00 hrs.
  WARNING: Pump WellPump#3 closed because cannot deliver head at 672:42:00 hrs.
  WARNING: Pump WellPump#4 closed because cannot deliver head at 672:42:00 hrs.
  
  WARNING: Pump WellPump#1 closed because cannot deliver head at 673:06:00 hrs.
  WARNING: Pump WellPump#2 closed because cannot deliver head at 673:06:00 hrs.
  WARNING: Pump WellPump#3 closed because cannot deliver head at 673:06:00 hrs.
  WARNING: Pump WellPump#4 closed because cannot deliver head at 673:06:00 hrs.
  
  WARNING: Pump WellPump#1 closed because cannot deliver head at 676:00:00 hrs.
  WARNING: Pump WellPump#2 closed because cannot deliver head at 676:00:00 hrs.
  WARNING: Pump WellPump#3 closed because cannot deliver head at 676:00:00 hrs.
  WARNING: Pump WellPump#4 closed because cannot deliver head at 676:00:00 hrs.
  WARNING: Pump ResvrPump closed because cannot deliver head at 676:00:00 hrs.
  
  WARNING: Pump WellPump#1 closed because cannot deliver head at 676:18:00 hrs.
  WARNING: Pump WellPump#2 closed because cannot deliver head at 676:18:00 hrs.
  WARNING: Pump WellPump#3 closed because cannot deliver head at 676:18:00 hrs.
  WARNING: Pump WellPump#4 closed because cannot deliver head at 676:18:00 hrs.
  
  WARNING: Pump WellPump#1 closed because cannot deliver head at 676:20:00 hrs.
  WARNING: Pump WellPump#2 closed because cannot deliver head at 676:20:00 hrs.
  WARNING: Pump WellPump#3 closed because cannot deliver head at 676:20:00 hrs.
  WARNING: Pump WellPump#4 closed because cannot deliver head at 676:20:00 hrs.
  
  WARNING: Pump WellPump#1 closed because cannot deliver head at 676:36:00 hrs.
  WARNING: Pump WellPump#2 closed because cannot deliver head at 676:36:00 hrs.
  WARNING: Pump WellPump#3 closed because cannot deliver head at 676:36:00 hrs.
  WARNING: Pump WellPump#4 closed because cannot deliver head at 676:36:00 hrs.
  WARNING: Pump ResvrPump closed because cannot deliver head at 676:36:00 hrs.
  
  WARNING: Pump WellPump#1 closed because cannot deliver head at 676:48:00 hrs.
  WARNING: Pump WellPump#2 closed because cannot deliver head at 676:48:00 hrs.
  WARNING: Pump WellPump#3 closed because cannot deliver head at 676:48:00 hrs.
  WARNING: Pump WellPump#4 closed because cannot deliver head at 676:48:00 hrs.
  
  WARNING: Pump WellPump#1 closed because cannot deliver head at 676:54:00 hrs.
  WARNING: Pump WellPump#2 closed because cannot deliver head at 676:54:00 hrs.
  WARNING: Pump WellPump#3 closed because cannot deliver head at 676:54:00 hrs.
  WARNING: Pump WellPump#4 closed because cannot deliver head at 676:54:00 hrs.
  WARNING: Pump ResvrPump closed because cannot deliver head at 676:54:00 hrs.
  
  WARNING: Pump WellPump#1 closed because cannot deliver head at 680:18:00 hrs.
  WARNING: Pump WellPump#2 closed because cannot deliver head at 680:18:00 hrs.
  WARNING: Pump WellPump#3 closed because cannot deliver head at 680:18:00 hrs.
  WARNING: Pump WellPump#4 closed because cannot deliver head at 680:18:00 hrs.
  
  WARNING: Pump WellPump#1 closed because cannot deliver head at 680:20:00 hrs.
  WARNING: Pump WellPump#2 closed because cannot deliver head at 680:20:00 hrs.
  WARNING: Pump WellPump#3 closed because cannot deliver head at 680:20:00 hrs.
  WARNING: Pump WellPump#4 closed because cannot deliver head at 680:20:00 hrs.
  
  WARNING: Pump WellPump#1 closed because cannot deliver head at 680:30:00 hrs.
  WARNING: Pump WellPump#2 closed because cannot deliver head at 680:30:00 hrs.
  WARNING: Pump WellPump#3 closed because cannot deliver head at 680:30:00 hrs.
  WARNING: Pump WellPump#4 closed because cannot deliver head at 680:30:00 hrs.
  
  WARNING: Pump WellPump#1 closed because cannot deliver head at 680:40:00 hrs.
  WARNING: Pump WellPump#2 closed because cannot deliver head at 680:40:00 hrs.
  WARNING: Pump WellPump#3 closed because cannot deliver head at 680:40:00 hrs.
  WARNING: Pump WellPump#4 closed because cannot deliver head at 680:40:00 hrs.
  WARNING: Pump ResvrPump closed because cannot deliver head at 680:40:00 hrs.
  
  WARNING: Pump WellPump#1 closed because cannot deliver head at 680:48:00 hrs.
  WARNING: Pump WellPump#2 closed because cannot deliver head at 680:48:00 hrs.
  WARNING: Pump WellPump#3 closed because cannot deliver head at 680:48:00 hrs.
  WARNING: Pump WellPump#4 closed because cannot deliver head at 680:48:00 hrs.
  
  WARNING: Pump ResvrPump closed because cannot deliver head at 680:50:00 hrs.
  
  WARNING: Pump WellPump#1 closed because cannot deliver head at 681:12:00 hrs.
  WARNING: Pump WellPump#2 closed because cannot deliver head at 681:12:00 hrs.
  WARNING: Pump WellPump#3 closed because cannot deliver head at 681:12:00 hrs.
  WARNING: Pump WellPump#4 closed because cannot deliver head at 681:12:00 hrs.
  WARNING: Pump ResvrPump closed because cannot deliver head at 681:12:00 hrs.
  
  WARNING: Pump WellPump#1 closed because cannot deliver head at 684:06:00 hrs.
  WARNING: Pump WellPump#2 closed because cannot deliver head at 684:06:00 hrs.
  WARNING: Pump WellPump#3 closed because cannot deliver head at 684:06:00 hrs.
  WARNING: Pump WellPump#4 closed because cannot deliver head at 684:06:00 hrs.
  WARNING: Pump ResvrPump closed because cannot deliver head at 684:06:00 hrs.
  
  WARNING: Pump WellPump#1 closed because cannot deliver head at 684:24:00 hrs.
  WARNING: Pump WellPump#2 closed because cannot deliver head at 684:24:00 hrs.
  WARNING: Pump WellPump#3 closed because cannot deliver head at 684:24:00 hrs.
  WARNING: Pump WellPump#4 closed because cannot deliver head at 684:24:00 hrs.
  
  WARNING: Pump WellPump#1 closed because cannot deliver head at 684:36:00 hrs.
  WARNING: Pump WellPump#2 closed because cannot deliver head at 684:36:00 hrs.
  WARNING: Pump WellPump#3 closed because cannot deliver head at 684:36:00 hrs.
  WARNING: Pump WellPump#4 closed because cannot deliver head at 684:36:00 hrs.
  
  WARNING: Pump WellPump#1 closed because cannot deliver head at 684:48:00 hrs.
  WARNING: Pump WellPump#2 closed because cannot deliver head at 684:48:00 hrs.
  WARNING: Pump WellPump#3 closed because cannot deliver head at 684:48:00 hrs.
  WARNING: Pump WellPump#4 closed because cannot deliver head at 684:48:00 hrs.
  
  WARNING: Pump WellPump#1 closed because cannot deliver head at 685:18:00 hrs.
  WARNING: Pump WellPump#2 closed because cannot deliver head at 685:18:00 hrs.
  WARNING: Pump WellPump#3 closed because cannot deliver head at 685:18:00 hrs.
  WARNING: Pump WellPump#4 closed because cannot deliver head at 685:18:00 hrs.
  
  WARNING: Pump WellPump#1 closed because cannot deliver head at 687:54:00 hrs.
  WARNING: Pump WellPump#2 closed because cannot deliver head at 687:54:00 hrs.
  WARNING: Pump WellPump#3 closed because cannot deliver head at 687:54:00 hrs.
  WARNING: Pump WellPump#4 closed because cannot deliver head at 687:54:00 hrs.
  
  WARNING: Pump WellPump#1 closed because cannot deliver head at 688:06:00 hrs.
  WARNING: Pump WellPump#2 closed because cannot deliver head at 688:06:00 hrs.
  WARNING: Pump WellPump#3 closed because cannot deliver head at 688:06:00 hrs.
  WARNING: Pump WellPump#4 closed because cannot deliver head at 688:06:00 hrs.
  WARNING: Pump ResvrPump closed because cannot deliver head at 688:06:00 hrs.
  
  WARNING: Pump WellPump#1 closed because cannot deliver head at 688:12:00 hrs.
  WARNING: Pump WellPump#2 closed because cannot deliver head at 688:12:00 hrs.
  WARNING: Pump WellPump#3 closed because cannot deliver head at 688:12:00 hrs.
  WARNING: Pump WellPump#4 closed because cannot deliver head at 688:12:00 hrs.
  
  WARNING: Pump WellPump#1 closed because cannot deliver head at 688:24:00 hrs.
  WARNING: Pump WellPump#2 closed because cannot deliver head at 688:24:00 hrs.
  WARNING: Pump WellPump#3 closed because cannot deliver head at 688:24:00 hrs.
  WARNING: Pump WellPump#4 closed because cannot deliver head at 688:24:00 hrs.
  
  WARNING: Pump WellPump#1 closed because cannot deliver head at 688:36:00 hrs.
  WARNING: Pump WellPump#2 closed because cannot deliver head at 688:36:00 hrs.
  WARNING: Pump WellPump#3 closed because cannot deliver head at 688:36:00 hrs.
  WARNING: Pump WellPump#4 closed because cannot deliver head at 688:36:00 hrs.
  WARNING: Pump ResvrPump closed because cannot deliver head at 688:36:00 hrs.
  
  WARNING: Pump WellPump#1 closed because cannot deliver head at 688:48:00 hrs.
  WARNING: Pump WellPump#2 closed because cannot deliver head at 688:48:00 hrs.
  WARNING: Pump WellPump#3 closed because cannot deliver head at 688:48:00 hrs.
  WARNING: Pump WellPump#4 closed because cannot deliver head at 688:48:00 hrs.
  
  WARNING: Pump WellPump#1 closed because cannot deliver head at 689:18:00 hrs.
  WARNING: Pump WellPump#2 closed because cannot deliver head at 689:18:00 hrs.
  WARNING: Pump WellPump#3 closed because cannot deliver head at 689:18:00 hrs.
  WARNING: Pump WellPump#4 closed because cannot deliver head at 689:18:00 hrs.
  WARNING: Pump ResvrPump closed because cannot deliver head at 689:18:00 hrs.
  
  WARNING: Pump WellPump#1 closed because cannot deliver head at 691:54:00 hrs.
  WARNING: Pump WellPump#2 closed because cannot deliver head at 691:54:00 hrs.
  WARNING: Pump WellPump#3 closed because cannot deliver head at 691:54:00 hrs.
  WARNING: Pump WellPump#4 closed because cannot deliver head at 691:54:00 hrs.
  
  WARNING: Pump WellPump#1 closed because cannot deliver head at 692:00:00 hrs.
  WARNING: Pump WellPump#2 closed because cannot deliver head at 692:00:00 hrs.
  WARNING: Pump WellPump#3 closed because cannot deliver head at 692:00:00 hrs.
  WARNING: Pump WellPump#4 closed because cannot deliver head at 692:00:00 hrs.
  
  WARNING: Pump WellPump#1 closed because cannot deliver head at 692:24:00 hrs.
  WARNING: Pump WellPump#2 closed because cannot deliver head at 692:24:00 hrs.
  WARNING: Pump WellPump#3 closed because cannot deliver head at 692:24:00 hrs.
  WARNING: Pump WellPump#4 closed because cannot deliver head at 692:24:00 hrs.
  WARNING: Pump ResvrPump closed because cannot deliver head at 692:24:00 hrs.
  
  WARNING: Pump WellPump#1 closed because cannot deliver head at 692:36:00 hrs.
  WARNING: Pump WellPump#2 closed because cannot deliver head at 692:36:00 hrs.
  WARNING: Pump WellPump#3 closed because cannot deliver head at 692:36:00 hrs.
  WARNING: Pump WellPump#4 closed because cannot deliver head at 692:36:00 hrs.
  WARNING: Pump ResvrPump closed because cannot deliver head at 692:36:00 hrs.
  
  WARNING: Pump WellPump#1 closed because cannot deliver head at 692:48:00 hrs.
  WARNING: Pump WellPump#2 closed because cannot deliver head at 692:48:00 hrs.
  WARNING: Pump WellPump#3 closed because cannot deliver head at 692:48:00 hrs.
  WARNING: Pump WellPump#4 closed because cannot deliver head at 692:48:00 hrs.
  
  WARNING: Pump WellPump#1 closed because cannot deliver head at 692:54:00 hrs.
  WARNING: Pump WellPump#2 closed because cannot deliver head at 692:54:00 hrs.
  WARNING: Pump WellPump#3 closed because cannot deliver head at 692:54:00 hrs.
  WARNING: Pump WellPump#4 closed because cannot deliver head at 692:54:00 hrs.
  