  Page 1                                    Wed May 15 18:52:24 2019

  ******************************************************************
  *                           E P A N E T                          *
  *                   Hydraulic and Water Quality                  *
  *                   Analysis for Pipe Networks                   *
  *                         Version 2.00.12                        *
  ******************************************************************
  
  Analysis begun Wed May 15 18:52:24 2019

  WARNING: Pump WellPump#1 closed because cannot deliver head at 0:06:00 hrs.
  WARNING: Pump WellPump#2 closed because cannot deliver head at 0:06:00 hrs.
  WARNING: Pump WellPump#3 closed because cannot deliver head at 0:06:00 hrs.
  WARNING: Pump WellPump#4 closed because cannot deliver head at 0:06:00 hrs.
  
  WARNING: Pump WellPump#1 closed because cannot deliver head at 0:30:00 hrs.
  WARNING: Pump WellPump#2 closed because cannot deliver head at 0:30:00 hrs.
  WARNING: Pump WellPump#3 closed because cannot deliver head at 0:30:00 hrs.
  WARNING: Pump WellPump#4 closed because cannot deliver head at 0:30:00 hrs.
  WARNING: Pump ResvrPump closed because cannot deliver head at 0:30:00 hrs.
  
  WARNING: Pump WellPump#1 closed because cannot deliver head at 0:50:00 hrs.
  WARNING: Pump WellPump#2 closed because cannot deliver head at 0:50:00 hrs.
  WARNING: Pump WellPump#3 closed because cannot deliver head at 0:50:00 hrs.
  WARNING: Pump WellPump#4 closed because cannot deliver head at 0:50:00 hrs.
  
  WARNING: Pump WellPump#1 closed because cannot deliver head at 1:10:00 hrs.
  WARNING: Pump WellPump#2 closed because cannot deliver head at 1:10:00 hrs.
  WARNING: Pump WellPump#3 closed because cannot deliver head at 1:10:00 hrs.
  WARNING: Pump WellPump#4 closed because cannot deliver head at 1:10:00 hrs.
  
  WARNING: Pump WellPump#1 closed because cannot deliver head at 1:20:00 hrs.
  WARNING: Pump WellPump#2 closed because cannot deliver head at 1:20:00 hrs.
  WARNING: Pump WellPump#3 closed because cannot deliver head at 1:20:00 hrs.
  WARNING: Pump WellPump#4 closed because cannot deliver head at 1:20:00 hrs.
  
  WARNING: Pump WellPump#1 closed because cannot deliver head at 1:30:00 hrs.
  WARNING: Pump WellPump#2 closed because cannot deliver head at 1:30:00 hrs.
  WARNING: Pump WellPump#3 closed because cannot deliver head at 1:30:00 hrs.
  WARNING: Pump WellPump#4 closed because cannot deliver head at 1:30:00 hrs.
  
  WARNING: Pump WellPump#1 closed because cannot deliver head at 4:00:00 hrs.
  WARNING: Pump WellPump#2 closed because cannot deliver head at 4:00:00 hrs.
  WARNING: Pump WellPump#3 closed because cannot deliver head at 4:00:00 hrs.
  WARNING: Pump WellPump#4 closed because cannot deliver head at 4:00:00 hrs.
  
  WARNING: Pump WellPump#1 closed because cannot deliver head at 4:10:00 hrs.
  WARNING: Pump WellPump#2 closed because cannot deliver head at 4:10:00 hrs.
  WARNING: Pump WellPump#3 closed because cannot deliver head at 4:10:00 hrs.
  WARNING: Pump WellPump#4 closed because cannot deliver head at 4:10:00 hrs.
  
  WARNING: Pump WellPump#1 closed because cannot deliver head at 4:18:00 hrs.
  WARNING: Pump WellPump#2 closed because cannot deliver head at 4:18:00 hrs.
  WARNING: Pump WellPump#3 closed because cannot deliver head at 4:18:00 hrs.
  WARNING: Pump WellPump#4 closed because cannot deliver head at 4:18:00 hrs.
  
  WARNING: Pump WellPump#1 closed because cannot deliver head at 4:20:00 hrs.
  WARNING: Pump WellPump#2 closed because cannot deliver head at 4:20:00 hrs.
  WARNING: Pump WellPump#3 closed because cannot deliver head at 4:20:00 hrs.
  WARNING: Pump WellPump#4 closed because cannot deliver head at 4:20:00 hrs.
  
  WARNING: Pump WellPump#1 closed because cannot deliver head at 4:36:00 hrs.
  WARNING: Pump WellPump#2 closed because cannot deliver head at 4:36:00 hrs.
  WARNING: Pump WellPump#3 closed because cannot deliver head at 4:36:00 hrs.
  WARNING: Pump WellPump#4 closed because cannot deliver head at 4:36:00 hrs.
  
  WARNING: Pump WellPump#1 closed because cannot deliver head at 4:48:00 hrs.
  WARNING: Pump WellPump#2 closed because cannot deliver head at 4:48:00 hrs.
  WARNING: Pump WellPump#3 closed because cannot deliver head at 4:48:00 hrs.
  WARNING: Pump WellPump#4 closed because cannot deliver head at 4:48:00 hrs.
  WARNING: Pump ResvrPump closed because cannot deliver head at 4:48:00 hrs.
  
  WARNING: Pump WellPump#1 closed because cannot deliver head at 4:54:00 hrs.
  WARNING: Pump WellPump#2 closed because cannot deliver head at 4:54:00 hrs.
  WARNING: Pump WellPump#3 closed because cannot deliver head at 4:54:00 hrs.
  WARNING: Pump WellPump#4 closed because cannot deliver head at 4:54:00 hrs.
  
  WARNING: Pump WellPump#1 closed because cannot deliver head at 8:18:00 hrs.
  WARNING: Pump WellPump#2 closed because cannot deliver head at 8:18:00 hrs.
  WARNING: Pump WellPump#3 closed because cannot deliver head at 8:18:00 hrs.
  WARNING: Pump WellPump#4 closed because cannot deliver head at 8:18:00 hrs.
  WARNING: Pump ResvrPump closed because cannot deliver head at 8:18:00 hrs.
  
  WARNING: Pump WellPump#1 closed because cannot deliver head at 8:20:00 hrs.
  WARNING: Pump WellPump#2 closed because cannot deliver head at 8:20:00 hrs.
  WARNING: Pump WellPump#3 closed because cannot deliver head at 8:20:00 hrs.
  WARNING: Pump WellPump#4 closed because cannot deliver head at 8:20:00 hrs.
  
  WARNING: Pump WellPump#1 closed because cannot deliver head at 8:30:00 hrs.
  WARNING: Pump WellPump#2 closed because cannot deliver head at 8:30:00 hrs.
  WARNING: Pump WellPump#3 closed because cannot deliver head at 8:30:00 hrs.
  WARNING: Pump WellPump#4 closed because cannot deliver head at 8:30:00 hrs.
  
  WARNING: Pump WellPump#1 closed because cannot deliver head at 8:40:00 hrs.
  WARNING: Pump WellPump#2 closed because cannot deliver head at 8:40:00 hrs.
  WARNING: Pump WellPump#3 closed because cannot deliver head at 8:40:00 hrs.
  WARNING: Pump WellPump#4 closed because cannot deliver head at 8:40:00 hrs.
  
  WARNING: Pump WellPump#1 closed because cannot deliver head at 8:48:00 hrs.
  WARNING: Pump WellPump#2 closed because cannot deliver head at 8:48:00 hrs.
  WARNING: Pump WellPump#3 closed because cannot deliver head at 8:48:00 hrs.
  WARNING: Pump WellPump#4 closed because cannot deliver head at 8:48:00 hrs.
  
  WARNING: Pump WellPump#1 closed because cannot deliver head at 9:18:00 hrs.
  WARNING: Pump WellPump#2 closed because cannot deliver head at 9:18:00 hrs.
  WARNING: Pump WellPump#3 closed because cannot deliver head at 9:18:00 hrs.
  WARNING: Pump WellPump#4 closed because cannot deliver head at 9:18:00 hrs.
  WARNING: Pump ResvrPump closed because cannot deliver head at 9:18:00 hrs.
  
  WARNING: Pump WellPump#1 closed because cannot deliver head at 11:54:00 hrs.
  WARNING: Pump WellPump#2 closed because cannot deliver head at 11:54:00 hrs.
  WARNING: Pump WellPump#3 closed because cannot deliver head at 11:54:00 hrs.
  WARNING: Pump WellPump#4 closed because cannot deliver head at 11:54:00 hrs.
  WARNING: Pump ResvrPump closed because cannot deliver head at 11:54:00 hrs.
  
  WARNING: Pump WellPump#1 closed because cannot deliver head at 12:06:00 hrs.
  WARNING: Pump WellPump#2 closed because cannot deliver head at 12:06:00 hrs.
  WARNING: Pump WellPump#3 closed because cannot deliver head at 12:06:00 hrs.
  WARNING: Pump WellPump#4 closed because cannot deliver head at 12:06:00 hrs.
  
  WARNING: Pump WellPump#1 closed because cannot deliver head at 12:12:00 hrs.
  WARNING: Pump WellPump#2 closed because cannot deliver head at 12:12:00 hrs.
  WARNING: Pump WellPump#3 closed because cannot deliver head at 12:12:00 hrs.
  WARNING: Pump WellPump#4 closed because cannot deliver head at 12:12:00 hrs.
  
  WARNING: Pump WellPump#1 closed because cannot deliver head at 12:24:00 hrs.
  WARNING: Pump WellPump#2 closed because cannot deliver head at 12:24:00 hrs.
  WARNING: Pump WellPump#3 closed because cannot deliver head at 12:24:00 hrs.
  WARNING: Pump WellPump#4 closed because cannot deliver head at 12:24:00 hrs.
  WARNING: Pump ResvrPump closed because cannot deliver head at 12:24:00 hrs.
  
  WARNING: Pump WellPump#1 closed because cannot deliver head at 12:36:00 hrs.
  WARNING: Pump WellPump#2 closed because cannot deliver head at 12:36:00 hrs.
  WARNING: Pump WellPump#3 closed because cannot deliver head at 12:36:00 hrs.
  WARNING: Pump WellPump#4 closed because cannot deliver head at 12:36:00 hrs.
  WARNING: Pump ResvrPump closed because cannot deliver head at 12:36:00 hrs.
  
  WARNING: Pump WellPump#1 closed because cannot deliver head at 12:48:00 hrs.
  WARNING: Pump WellPump#2 closed because cannot deliver head at 12:48:00 hrs.
  WARNING: Pump WellPump#3 closed because cannot deliver head at 12:48:00 hrs.
  WARNING: Pump WellPump#4 closed because cannot deliver head at 12:48:00 hrs.
  
  WARNING: Pump WellPump#1 closed because cannot deliver head at 13:18:00 hrs.
  WARNING: Pump WellPump#2 closed because cannot deliver head at 13:18:00 hrs.
  WARNING: Pump WellPump#3 closed because cannot deliver head at 13:18:00 hrs.
  WARNING: Pump WellPump#4 closed because cannot deliver head at 13:18:00 hrs.
  
  WARNING: Pump WellPump#1 closed because cannot deliver head at 15:54:00 hrs.
  WARNING: Pump WellPump#2 closed because cannot deliver head at 15:54:00 hrs.
  WARNING: Pump WellPump#3 closed because cannot deliver head at 15:54:00 hrs.
  WARNING: Pump WellPump#4 closed because cannot deliver head at 15:54:00 hrs.
  
  WARNING: Pump WellPump#1 closed because cannot deliver head at 16:06:00 hrs.
  WARNING: Pump WellPump#2 closed because cannot deliver head at 16:06:00 hrs.
  WARNING: Pump WellPump#3 closed because cannot deliver head at 16:06:00 hrs.
  WARNING: Pump WellPump#4 closed because cannot deliver head at 16:06:00 hrs.
  
  WARNING: Pump WellPump#1 closed because cannot deliver head at 16:12:00 hrs.
  WARNING: Pump WellPump#2 closed because cannot deliver head at 16:12:00 hrs.
  WARNING: Pump WellPump#3 closed because cannot deliver head at 16:12:00 hrs.
  WARNING: Pump WellPump#4 closed because cannot deliver head at 16:12:00 hrs.
  
  WARNING: Pump WellPump#1 closed because cannot deliver head at 16:24:00 hrs.
  WARNING: Pump WellPump#2 closed because cannot deliver head at 16:24:00 hrs.
  WARNING: Pump WellPump#3 closed because cannot deliver head at 16:24:00 hrs.
  WARNING: Pump WellPump#4 closed because cannot deliver head at 16:24:00 hrs.
  WARNING: Pump ResvrPump closed because cannot deliver head at 16:24:00 hrs.
  
  WARNING: Pump WellPump#1 closed because cannot deliver head at 16:36:00 hrs.
  WARNING: Pump WellPump#2 closed because cannot deliver head at 16:36:00 hrs.
  WARNING: Pump WellPump#3 closed because cannot deliver head at 16:36:00 hrs.
  WARNING: Pump WellPump#4 closed because cannot deliver head at 16:36:00 hrs.
  WARNING: Pump ResvrPump closed because cannot deliver head at 16:36:00 hrs.
  
  WARNING: Pump WellPump#1 closed because cannot deliver head at 16:48:00 hrs.
  WARNING: Pump WellPump#2 closed because cannot deliver head at 16:48:00 hrs.
  WARNING: Pump WellPump#3 closed because cannot deliver head at 16:48:00 hrs.
  WARNING: Pump WellPump#4 closed because cannot deliver head at 16:48:00 hrs.
  
  WARNING: Pump WellPump#1 closed because cannot deliver head at 17:20:00 hrs.
  WARNING: Pump WellPump#2 closed because cannot deliver head at 17:20:00 hrs.
  WARNING: Pump WellPump#3 closed because cannot deliver head at 17:20:00 hrs.
  WARNING: Pump WellPump#4 closed because cannot deliver head at 17:20:00 hrs.
  
  WARNING: Pump WellPump#1 closed because cannot deliver head at 20:00:00 hrs.
  WARNING: Pump WellPump#2 closed because cannot deliver head at 20:00:00 hrs.
  WARNING: Pump WellPump#3 closed because cannot deliver head at 20:00:00 hrs.
  WARNING: Pump WellPump#4 closed because cannot deliver head at 20:00:00 hrs.
  WARNING: Pump ResvrPump closed because cannot deliver head at 20:00:00 hrs.
  
  WARNING: Pump WellPump#1 closed because cannot deliver head at 20:36:00 hrs.
  WARNING: Pump WellPump#2 closed because cannot deliver head at 20:36:00 hrs.
  WARNING: Pump WellPump#3 closed because cannot deliver head at 20:36:00 hrs.
  WARNING: Pump WellPump#4 closed because cannot deliver head at 20:36:00 hrs.
  
  WARNING: Pump WellPump#1 closed because cannot deliver head at 20:42:00 hrs.
  WARNING: Pump WellPump#2 closed because cannot deliver head at 20:42:00 hrs.
  WARNING: Pump WellPump#3 closed because cannot deliver head at 20:42:00 hrs.
  WARNING: Pump WellPump#4 closed because cannot deliver head at 20:42:00 hrs.
  WARNING: Pump ResvrPump closed because cannot deliver head at 20:42:00 hrs.
  
  WARNING: Pump WellPump#1 closed because cannot deliver head at 21:06:00 hrs.
  WARNING: Pump WellPump#2 closed because cannot deliver head at 21:06:00 hrs.
  WARNING: Pump WellPump#3 closed because cannot deliver head at 21:06:00 hrs.
  WARNING: Pump WellPump#4 closed because cannot deliver head at 21:06:00 hrs.
  
  WARNING: Pump WellPump#1 closed because cannot deliver head at 24:00:00 hrs.
  WARNING: Pump WellPump#2 closed because cannot deliver head at 24:00:00 hrs.
  WARNING: Pump WellPump#3 closed because cannot deliver head at 24:00:00 hrs.
  WARNING: Pump WellPump#4 closed because cannot deliver head at 24:00:00 hrs.
  
  Analysis ended Wed May 15 18:52:25 2019
