  Page 1                                    Fri May 17 11:51:36 2019

  ******************************************************************
  *                           E P A N E T                          *
  *                   Hydraulic and Water Quality                  *
  *                   Analysis for Pipe Networks                   *
  *                         Version 2.00.12                        *
  ******************************************************************
  
  Analysis begun Fri May 17 11:51:36 2019

   
  Hydraulic Status:
  -----------------------------------------------------------------------
     0:00:00: Balanced after 5 trials
     0:00:00: Tank 26 is filling at 56.70 ft
   
     0:10:00: Balanced after 2 trials
   
     0:20:00: Balanced after 2 trials
   
     0:30:00: Balanced after 1 trials
   
     0:40:00: Balanced after 2 trials
   
     0:50:00: Balanced after 2 trials
   
     1:00:00: Balanced after 2 trials
   
     1:10:00: Balanced after 2 trials
   
     1:20:00: Balanced after 1 trials
   
     1:30:00: Balanced after 2 trials
   
     1:40:00: Balanced after 2 trials
   
     1:50:00: Balanced after 2 trials
   
     2:00:00: Balanced after 2 trials
   
     2:10:00: Balanced after 2 trials
   
     2:20:00: Balanced after 2 trials
   
     2:30:00: Balanced after 2 trials
   
     2:40:00: Balanced after 2 trials
   
     2:50:00: Balanced after 2 trials
   
     3:00:00: Balanced after 2 trials
   
     3:10:00: Balanced after 2 trials
   
     3:20:00: Balanced after 2 trials
   
     3:30:00: Balanced after 2 trials
   
     3:40:00: Balanced after 2 trials
   
     3:50:00: Balanced after 2 trials
   
     4:00:00: Balanced after 2 trials
   
     4:10:00: Balanced after 2 trials
   
     4:20:00: Balanced after 2 trials
   
     4:30:00: Balanced after 2 trials
   
     4:40:00: Balanced after 2 trials
   
     4:50:00: Balanced after 2 trials
   
     5:00:00: Balanced after 2 trials
   
     5:10:00: Balanced after 2 trials
   
     5:20:00: Balanced after 2 trials
   
     5:30:00: Balanced after 2 trials
   
     5:40:00: Balanced after 2 trials
   
     5:50:00: Balanced after 2 trials
   
     6:00:00: Balanced after 2 trials
   
     6:10:00: Balanced after 2 trials
   
     6:20:00: Balanced after 2 trials
   
     6:30:00: Balanced after 2 trials
   
     6:40:00: Balanced after 2 trials
   
     6:50:00: Balanced after 2 trials
   
     7:00:00: Balanced after 2 trials
   
     7:10:00: Balanced after 2 trials
   
     7:20:00: Balanced after 2 trials
   
     7:30:00: Balanced after 2 trials
   
     7:40:00: Balanced after 2 trials
   
     7:50:00: Balanced after 2 trials
   
     8:00:00: Balanced after 2 trials
   
     8:10:00: Balanced after 2 trials
   
     8:20:00: Balanced after 2 trials
   
     8:30:00: Balanced after 2 trials
   
     8:40:00: Balanced after 2 trials
   
     8:43:50: Balanced after 2 trials
     8:43:50: Tank 26 is closed at 70.00 ft
     8:43:50: Pipe 29 changed from open to temporarily closed
   
     8:50:00: Balanced after 2 trials
   
     9:00:00: Balanced after 1 trials
   
     9:10:00: Balanced after 2 trials
   
     9:20:00: Balanced after 2 trials
   
     9:30:00: Balanced after 2 trials
   
     9:40:00: Balanced after 1 trials
   
     9:50:00: Balanced after 2 trials
   
    10:00:00: Balanced after 2 trials
   
    10:10:00: Balanced after 2 trials
   
    10:20:00: Balanced after 2 trials
   
    10:30:00: Balanced after 1 trials
   
    10:40:00: Balanced after 2 trials
   
    10:50:00: Balanced after 2 trials
   
    11:00:00: Balanced after 2 trials
   
    11:10:00: Balanced after 2 trials
   
    11:20:00: Balanced after 2 trials
   
    11:30:00: Balanced after 2 trials
   
    11:40:00: Balanced after 2 trials
   
    11:50:00: Balanced after 2 trials
   
    12:00:00: Balanced after 2 trials
   
    12:10:00: Balanced after 2 trials
   
    12:20:00: Balanced after 2 trials
   
    12:30:00: Balanced after 2 trials
   
    12:40:00: Balanced after 2 trials
   
    12:50:00: Balanced after 2 trials
   