  Page 1                                    Thu Jun 14 22:32:28 2018

  ******************************************************************
  *                           E P A N E T                          *
  *                   Hydraulic and Water Quality                  *
  *                   Analysis for Pipe Networks                   *
  *                         Version 2.00.12                        *
  ******************************************************************
  
  Analysis begun Thu Jun 14 22:32:28 2018

   
  Hydraulic Status:
  -----------------------------------------------------------------------
     0:00:00: Balanced after 5 trials
     0:00:00: Tank 26 is filling at 56.70 ft
   
     0:10:00: Balanced after 2 trials
   
     0:20:00: Balanced after 2 trials
   
     0:30:00: Balanced after 1 trials
   
     0:40:00: Balanced after 2 trials
   
     0:50:00: Balanced after 2 trials
   
     1:00:00: Balanced after 2 trials
   
     1:10:00: Balanced after 2 trials
   
     1:20:00: Balanced after 1 trials
   
     1:30:00: Balanced after 2 trials
   
     1:40:00: Balanced after 2 trials
   
     1:50:00: Balanced after 2 trials
   
     2:00:00: Balanced after 2 trials
   
     2:10:00: Balanced after 2 trials
   
     2:20:00: Balanced after 2 trials
   
     2:30:00: Balanced after 2 trials
   
     2:40:00: Balanced after 2 trials
   
     2:50:00: Balanced after 2 trials
   
     3:00:00: Balanced after 2 trials
   
     3:10:00: Balanced after 2 trials
   
     3:20:00: Balanced after 2 trials
   
     3:30:00: Balanced after 2 trials
   
     3:40:00: Balanced after 2 trials
   
     3:50:00: Balanced after 2 trials
   
     4:00:00: Balanced after 2 trials
   
     4:10:00: Balanced after 2 trials
   
     4:20:00: Balanced after 2 trials
   
     4:30:00: Balanced after 2 trials
   
     4:40:00: Balanced after 2 trials
   
     4:50:00: Balanced after 2 trials
   
     5:00:00: Balanced after 2 trials
   
     5:10:00: Balanced after 2 trials
   
     5:20:00: Balanced after 2 trials
   
     5:30:00: Balanced after 2 trials
   
     5:40:00: Balanced after 2 trials
   
     5:50:00: Balanced after 2 trials
   
     6:00:00: Balanced after 2 trials
   
     6:10:00: Balanced after 2 trials
   
     6:20:00: Balanced after 2 trials
   
     6:30:00: Balanced after 2 trials
   
     6:40:00: Balanced after 2 trials
   
     6:50:00: Balanced after 2 trials
   
     7:00:00: Balanced after 2 trials
   
     7:10:00: Balanced after 2 trials
   
     7:20:00: Balanced after 2 trials
   
     7:30:00: Balanced after 2 trials
   
     7:40:00: Balanced after 2 trials
   
     7:50:00: Balanced after 2 trials
   
     8:00:00: Balanced after 2 trials
   
     8:10:00: Balanced after 2 trials
   
     8:20:00: Balanced after 2 trials
   
     8:30:00: Balanced after 2 trials
   
     8:40:00: Balanced after 2 trials
   
     8:43:50: Balanced after 2 trials
     8:43:50: Tank 26 is closed at 70.00 ft
     8:43:50: Pipe 29 changed from open to temporarily closed
   
     8:50:00: Balanced after 2 trials
   
     9:00:00: Balanced after 1 trials
   
     9:10:00: Balanced after 2 trials
   
     9:20:00: Balanced after 2 trials
   
     9:30:00: Balanced after 2 trials
   
     9:40:00: Balanced after 1 trials
   
     9:50:00: Balanced after 2 trials
   
    10:00:00: Balanced after 2 trials
   
    10:10:00: Balanced after 2 trials
   
    10:20:00: Balanced after 2 trials
   
    10:30:00: Balanced after 1 trials
   
    10:40:00: Balanced after 2 trials
   
    10:50:00: Balanced after 2 trials
   
    11:00:00: Balanced after 2 trials
   
    11:10:00: Balanced after 2 trials
   
    11:20:00: Balanced after 2 trials
   
    11:30:00: Balanced after 2 trials
   
    11:40:00: Balanced after 2 trials
   
    11:50:00: Balanced after 2 trials
   
    12:00:00: Balanced after 2 trials
   
    12:10:00: Balanced after 2 trials
   
    12:20:00: Balanced after 2 trials
   
    12:30:00: Balanced after 2 trials
   
    12:40:00: Balanced after 2 trials
   
    12:50:00: Balanced after 2 trials
   
    13:00:00: Balanced after 2 trials
   
    13:10:00: Balanced after 2 trials
   
    13:20:00: Balanced after 2 trials
   
    13:30:00: Balanced after 2 trials
   
    13:40:00: Balanced after 2 trials
   
    13:50:00: Balanced after 2 trials
   
    14:00:00: Balanced after 2 trials
   
    14:10:00: Balanced after 2 trials
   
    14:20:00: Balanced after 2 trials
   
    14:30:00: Balanced after 2 trials
   
    14:40:00: Balanced after 2 trials
   
    14:50:00: Balanced after 2 trials
   
    15:00:00: Balanced after 2 trials
   
    15:10:00: Balanced after 2 trials
   
    15:20:00: Balanced after 2 trials
   
    15:30:00: Balanced after 2 trials
   
    15:40:00: Balanced after 2 trials
   
    15:50:00: Balanced after 2 trials
   
    16:00:00: Balanced after 2 trials
   
    16:10:00: Balanced after 2 trials
   
    16:20:00: Balanced after 2 trials
   
    16:30:00: Balanced after 2 trials
   
    16:40:00: Balanced after 2 trials
   
    16:50:00: Balanced after 2 trials
   
    17:00:00: Balanced after 2 trials
   
    17:10:00: Balanced after 2 trials
   
    17:20:00: Balanced after 2 trials
   
    17:30:00: Balanced after 2 trials
   
    17:40:00: Balanced after 2 trials
   
    17:50:00: Balanced after 2 trials
   
    18:00:00: Balanced after 2 trials
   
    18:10:00: Balanced after 1 trials
   
    18:20:00: Balanced after 2 trials
   
    18:30:00: Balanced after 2 trials
   
    18:40:00: Balanced after 2 trials
   
    18:50:00: Balanced after 1 trials
   
    19:00:00: Balanced after 2 trials
   
    19:10:00: Balanced after 2 trials
   
    19:20:00: Balanced after 2 trials
   
    19:30:00: Balanced after 2 trials
   
    19:40:00: Balanced after 1 trials
   
    19:50:00: Balanced after 2 trials
   
    20:00:00: Balanced after 2 trials
   
    20:10:00: Balanced after 2 trials
   
    20:20:00: Balanced after 2 trials
   
    20:30:00: Balanced after 2 trials
   
    20:40:00: Balanced after 2 trials
   
    20:50:00: Balanced after 2 trials
   
    21:00:00: Balanced after 2 trials
   
    21:10:00: Balanced after 2 trials
   
    21:20:00: Balanced after 2 trials
   
    21:30:00: Balanced after 2 trials
   
    21:40:00: Balanced after 2 trials
   
    21:50:00: Balanced after 2 trials
   
    22:00:00: Balanced after 2 trials
   
    22:10:00: Balanced after 2 trials
   
    22:20:00: Balanced after 2 trials
   
    22:30:00: Balanced after 2 trials
   
    22:40:00: Balanced after 2 trials
   
    22:50:00: Balanced after 2 trials
   
    23:00:00: Balanced after 2 trials
   
    23:10:00: Balanced after 2 trials
   
    23:20:00: Balanced after 2 trials
   
    23:30:00: Balanced after 2 trials
   
    23:40:00: Balanced after 2 trials
   
    23:50:00: Balanced after 2 trials
   
    24:00:00: Balanced after 2 trials
   
  Analysis ended Thu Jun 14 22:32:28 2018
