  Page 1                                    Tue Jun 26 20:21:41 2018

  ******************************************************************
  *                           E P A N E T                          *
  *                   Hydraulic and Water Quality                  *
  *                   Analysis for Pipe Networks                   *
  *                         Version 2.00.12                        *
  ******************************************************************
  
  Analysis begun Tue Jun 26 20:21:41 2018

   
  Hydraulic Status:
  -----------------------------------------------------------------------
     0:00:00: Balancing the network:
              Trial  1: relative flow change = 2.011000
              Trial  2: relative flow change = 0.515445
              Trial  3: relative flow change = 0.512809
              Trial  4: relative flow change = 0.378433
              Trial  5: relative flow change = 0.096044
              Trial  6: relative flow change = 0.005846
              Trial  7: relative flow change = 0.000308
              Trial  8: relative flow change = 0.000077
     0:00:00: Balanced after 8 trials
     0:00:00: Reservoir R-1 is filling
     0:00:00: Reservoir R-2 is emptying
     0:00:00: Reservoir R-3 is emptying
     0:00:00: Reservoir R-4 is emptying
     0:00:00: Tank T-1 is emptying at 62.60 ft
     0:00:00: Tank T-2 is filling at 28.56 ft
     0:00:00: Tank T-3 is filling at 51.86 ft
   
     0:10:00: Balancing the network:
              Trial  1: relative flow change = 0.007628
              Trial  2: relative flow change = 0.000551
              Trial  3: relative flow change = 0.000049
     0:10:00: Balanced after 3 trials
   
     0:20:00: Balancing the network:
              Trial  1: relative flow change = 0.007683
              Trial  2: relative flow change = 0.000645
              Trial  3: relative flow change = 0.000070
     0:20:00: Balanced after 3 trials
   
     0:30:00: Balancing the network:
              Trial  1: relative flow change = 0.009282
              Trial  2: relative flow change = 0.000327
              Trial  3: relative flow change = 0.000017
     0:30:00: Balanced after 3 trials
   
     0:30:02: Pump ~@Pump-7 changed by Tank T-3 control
     0:30:02: Pump ~@Pump-7a changed by Tank T-3 control
     0:30:02: Balancing the network:
              Trial  1: relative flow change = 1.300545
              Trial  2: relative flow change = 0.117797
              Trial  3: relative flow change = 0.043539
              Trial  4: relative flow change = 0.005076
              Trial  5: relative flow change = 0.000145
              Trial  6: relative flow change = 0.000005
     0:30:02: Balanced after 6 trials
     0:30:02: Tank T-1 is filling at 61.45 ft
     0:30:02: Pump ~@Pump-7 changed from open to closed
     0:30:02: Pump ~@Pump-7a changed from open to closed
   
     0:40:00: Balancing the network:
              Trial  1: relative flow change = 0.010258
              Trial  2: relative flow change = 0.000593
              Trial  3: relative flow change = 0.000057
     0:40:00: Balanced after 3 trials
   
     0:50:00: Balancing the network:
              Trial  1: relative flow change = 0.017019
              Trial  2: relative flow change = 0.000922
              Trial  3: relative flow change = 0.000035
     0:50:00: Balanced after 3 trials
   
     1:00:00: Balancing the network:
              Trial  1: relative flow change = 0.026288
              Trial  2: relative flow change = 0.002474
              Trial  3: relative flow change = 0.000081
     1:00:00: Balanced after 3 trials
   
     1:10:00: Balancing the network:
              Trial  1: relative flow change = 0.055198
              Trial  2: relative flow change = 0.008443
              Trial  3: relative flow change = 0.000604
              Trial  4: relative flow change = 0.000062
     1:10:00: Balanced after 4 trials
   
     1:20:00: Balancing the network:
              Trial  1: relative flow change = 0.039780
              Trial  2: relative flow change = 0.006566
              Trial  3: relative flow change = 0.000212
              Trial  4: relative flow change = 0.000003
     1:20:00: Balanced after 4 trials
   
     1:30:00: Balancing the network:
              Trial  1: relative flow change = 0.013506
              Trial  2: relative flow change = 0.000687
              Trial  3: relative flow change = 0.000007
     1:30:00: Balanced after 3 trials
   
     1:40:00: Balancing the network:
              Trial  1: relative flow change = 0.006116
              Trial  2: relative flow change = 0.000087
     1:40:00: Balanced after 2 trials
   
     1:50:00: Balancing the network:
              Trial  1: relative flow change = 0.003131
              Trial  2: relative flow change = 0.000038
     1:50:00: Balanced after 2 trials
   
     1:55:44: Balancing the network:
              Trial  1: relative flow change = 0.001700
              Trial  2: relative flow change = 0.000010
              Pipe P-2 switched from open to closed
              Trial  3: relative flow change = 0.149785
              Trial  4: relative flow change = 0.020281
              Trial  5: relative flow change = 0.001615
              Trial  6: relative flow change = 0.000103
              Trial  7: relative flow change = 0.000004
     1:55:44: Balanced after 7 trials
     1:55:44: Tank T-3 is closed at 61.86 ft
     1:55:44: Pipe P-2 changed from open to temporarily closed
   
     2:00:00: Balancing the network:
              Trial  1: relative flow change = 0.002544
              Trial  2: relative flow change = 0.000019
     2:00:00: Balanced after 2 trials
   
     2:10:00: Balancing the network:
              Trial  1: relative flow change = 0.006482
              Trial  2: relative flow change = 0.000112
              Trial  3: relative flow change = 0.000000
     2:10:00: Balanced after 3 trials
   
     2:20:00: Balancing the network:
              Trial  1: relative flow change = 0.002450
              Trial  2: relative flow change = 0.000013
     2:20:00: Balanced after 2 trials
   
     2:30:00: Balancing the network:
              Trial  1: relative flow change = 0.000595
              Trial  2: relative flow change = 0.000000
     2:30:00: Balanced after 2 trials
   
     2:40:00: Balancing the network:
              Trial  1: relative flow change = 0.003745
              Trial  2: relative flow change = 0.000049
     2:40:00: Balanced after 2 trials
   
     2:50:00: Balancing the network:
              Trial  1: relative flow change = 0.011696
              Trial  2: relative flow change = 0.000435
              Trial  3: relative flow change = 0.000002
     2:50:00: Balanced after 3 trials
   
     3:00:00: Balancing the network:
              Trial  1: relative flow change = 0.019233
              Trial  2: relative flow change = 0.001478
              Trial  3: relative flow change = 0.000013
     3:00:00: Balanced after 3 trials
   
     3:10:00: Balancing the network:
              Trial  1: relative flow change = 0.023838
              Trial  2: relative flow change = 0.004050
              Trial  3: relative flow change = 0.000168
              Trial  4: relative flow change = 0.000002
     3:10:00: Balanced after 4 trials
   
     3:20:00: Balancing the network:
              Trial  1: relative flow change = 0.006803
              Trial  2: relative flow change = 0.000477
              Trial  3: relative flow change = 0.000007
     3:20:00: Balanced after 3 trials
   
     3:30:00: Balancing the network:
              Trial  1: relative flow change = 0.010725
              Trial  2: relative flow change = 0.001052
              Trial  3: relative flow change = 0.000029
     3:30:00: Balanced after 3 trials
   
     3:40:00: Balancing the network:
              Trial  1: relative flow change = 0.100357
              Trial  2: relative flow change = 0.037172
              Trial  3: relative flow change = 0.003826
              Trial  4: relative flow change = 0.000122
              Trial  5: relative flow change = 0.000001
     3:40:00: Balanced after 5 trials
   
     3:50:00: Balancing the network:
              Trial  1: relative flow change = 0.053006
              Trial  2: relative flow change = 0.004223
              Trial  3: relative flow change = 0.000239
              Trial  4: relative flow change = 0.000009
     3:50:00: Balanced after 4 trials
   
     4:00:00: Balancing the network:
              Trial  1: relative flow change = 0.019009
              Trial  2: relative flow change = 0.000550
              Trial  3: relative flow change = 0.000014
     4:00:00: Balanced after 3 trials
   
     4:10:00: Balancing the network:
              Trial  1: relative flow change = 0.010293
              Trial  2: relative flow change = 0.000090
     4:10:00: Balanced after 2 trials
   
     4:20:00: Balancing the network:
              Trial  1: relative flow change = 0.005455
              Trial  2: relative flow change = 0.000018
     4:20:00: Balanced after 2 trials
   
     4:30:00: Balancing the network:
              Trial  1: relative flow change = 0.001163
              Trial  2: relative flow change = 0.000000
     4:30:00: Balanced after 2 trials
   
     4:40:00: Balancing the network:
              Trial  1: relative flow change = 0.006244
              Trial  2: relative flow change = 0.000053
     4:40:00: Balanced after 2 trials
   
     4:50:00: Balancing the network:
              Trial  1: relative flow change = 0.012758
              Trial  2: relative flow change = 0.000205
              Trial  3: relative flow change = 0.000001
     4:50:00: Balanced after 3 trials
   
     5:00:00: Balancing the network:
              Trial  1: relative flow change = 0.021529
              Trial  2: relative flow change = 0.000793
              Trial  3: relative flow change = 0.000004
     5:00:00: Balanced after 3 trials
   
     5:10:00: Balancing the network:
              Trial  1: relative flow change = 0.049239
              Trial  2: relative flow change = 0.003650
              Trial  3: relative flow change = 0.000183
              Trial  4: relative flow change = 0.000004
     5:10:00: Balanced after 4 trials
   
     5:20:00: Balancing the network:
              Trial  1: relative flow change = 0.037731
              Trial  2: relative flow change = 0.002860
              Trial  3: relative flow change = 0.000039
     5:20:00: Balanced after 3 trials
   
     5:30:00: Balancing the network:
              Trial  1: relative flow change = 0.012896
              Trial  2: relative flow change = 0.000587
              Trial  3: relative flow change = 0.000056
     5:30:00: Balanced after 3 trials
   
     5:40:00: Balancing the network:
              Trial  1: relative flow change = 0.005376
              Trial  2: relative flow change = 0.000110
              Trial  3: relative flow change = 0.000000
     5:40:00: Balanced after 3 trials
   
     5:50:00: Balancing the network:
              Trial  1: relative flow change = 0.000445
              Trial  2: relative flow change = 0.000000
     5:50:00: Balanced after 2 trials
   
     6:00:00: Balancing the network:
              Trial  1: relative flow change = 0.002589
              Trial  2: relative flow change = 0.000023
     6:00:00: Balanced after 2 trials
   
     6:10:00: Balancing the network:
              Trial  1: relative flow change = 0.006598
              Trial  2: relative flow change = 0.000142
              Trial  3: relative flow change = 0.000000
     6:10:00: Balanced after 3 trials
   
     6:20:00: Balancing the network:
              Trial  1: relative flow change = 0.002463
              Trial  2: relative flow change = 0.000015
     6:20:00: Balanced after 2 trials
   
     6:21:31: Pump ~@Pump-9 changed by Tank T-1 control
     6:21:31: Pump ~@Pump-9a changed by Tank T-1 control
     6:21:31: Balancing the network:
              Trial  1: relative flow change = 0.706174
              Trial  2: relative flow change = 0.076527
              Pipe P-2 switched from closed to open
              Trial  3: relative flow change = 0.223880
              Trial  4: relative flow change = 0.078347
              Trial  5: relative flow change = 0.023310
              Trial  6: relative flow change = 0.004502
              Trial  7: relative flow change = 0.000215
              Trial  8: relative flow change = 0.000005
     6:21:31: Balanced after 8 trials
     6:21:31: Tank T-1 is emptying at 77.60 ft
     6:21:31: Tank T-3 is emptying at 61.86 ft
     6:21:31: Pipe P-2 changed from temporarily closed to open
     6:21:31: Pump ~@Pump-9 changed from open to closed
     6:21:31: Pump ~@Pump-9a changed from open to closed
   
     6:30:00: Balancing the network:
              Trial  1: relative flow change = 0.000662
              Trial  2: relative flow change = 0.000022
     6:30:00: Balanced after 2 trials
   
     6:40:00: Balancing the network:
              Trial  1: relative flow change = 0.006348
              Trial  2: relative flow change = 0.000079
     6:40:00: Balanced after 2 trials
   
     6:50:00: Balancing the network:
              Trial  1: relative flow change = 0.018848
              Trial  2: relative flow change = 0.000306
              Trial  3: relative flow change = 0.000004
     6:50:00: Balanced after 3 trials
   
     7:00:00: Balancing the network:
              Trial  1: relative flow change = 0.029854
              Trial  2: relative flow change = 0.000868
              Trial  3: relative flow change = 0.000015
     7:00:00: Balanced after 3 trials
   
     7:10:00: Balancing the network:
              Trial  1: relative flow change = 0.034774
              Trial  2: relative flow change = 0.000774